                                   MODFLOW 6
                U.S. GEOLOGICAL SURVEY MODULAR HYDROLOGIC MODEL
                          GROUNDWATER FLOW MODEL (GWF)
                            VERSION 6.5.0 05/23/2024

   MODFLOW 6 compiled Jun 21 2024 02:57:23 with Intel(R) Fortran Intel(R) 64
   Compiler Classic for applications running on Intel(R) 64, Version 2021.7.0
                             Build 20220726_000000

This software has been approved for release by the U.S. Geological 
Survey (USGS). Although the software has been subjected to rigorous 
review, the USGS reserves the right to update the software as needed 
pursuant to further analysis and review. No warranty, expressed or 
implied, is made by the USGS or the U.S. Government as to the 
functionality of the software and related material nor shall the 
fact of release constitute any such warranty. Furthermore, the 
software is released on condition that neither the USGS nor the U.S. 
Government shall be held liable for any damages resulting from its 
authorized or unauthorized use. Also refer to the USGS Water 
Resources Software User Rights Notice for complete use, copyright, 
and distribution information.


As a work of the United States Government, this USGS product is 
in the public domain within the United States. You can copy, 
modify, distribute, and perform the work, even for commercial 
purposes, all without asking permission. Additionally, USGS 
waives copyright and related rights in the work worldwide 
through CC0 1.0 Universal Public Domain Dedication 
(https://creativecommons.org/publicdomain/zero/1.0/).

The following GNU Lesser General Public License (LGPL) libraries
are used in this USGS product:

    SPARSKIT version 2.0
      ilut, luson, and qsplit 
      (https://www-users.cse.umn.edu/~saad/software/SPARSKIT/)

    RCM - Reverse Cuthill McKee Ordering
      (https://people.math.sc.edu/Burkardt/f_src/rcm/rcm.html)

    BLAS - Basic Linear Algebra Subprograms Level 1
      (https://people.math.sc.edu/Burkardt/f_src/blas1_d/blas1_d.html)

    SPARSEKIT - Sparse Matrix Utility Package
      amux, dperm, dvperm, rperm, and cperm
      (https://people.sc.fsu.edu/~jburkardt/f77_src/sparsekit/sparsekit.html)

The following BSD-3 License libraries are used in this USGS product:

    Modern Fortran DAG Library
      Copyright (c) 2018, Jacob Williams
      All rights reserved.
      (https://github.com/jacobwilliams/daglib)

MODFLOW 6 compiler options: /O2 /heap-arrays:0 /fpe:0 /traceback /nologo /fpp
/c /module:win64\mod_mf6\ /object:win64\obj_mf6\

System command used to initiate simulation:
"C:\Users\gtmen\Desktop\FloPy Examples\modflowExe\mf6.exe"

MODFLOW was compiled using uniform precision.

Real Variables
  KIND: 8
  TINY (smallest non-zero value):    2.225074-308
  HUGE (largest value):    1.797693+308
  PRECISION: 15
  SIZE IN BITS: 64

Integer Variables
  KIND: 4
  HUGE (largest value): 2147483647
  SIZE IN BITS: 32

Long Integer Variables
  KIND: 8
  HUGE (largest value): 9223372036854775807
  SIZE IN BITS: 64

Logical Variables
  KIND: 4
  SIZE IN BITS: 32
 
 NAMEFILE OPTIONS:
    NEWTON-RAPHSON method enabled for the model.
    NEWTON-RAPHSON UNDER-RELAXATION based on the bottom elevation of the model will be applied to the model.
    FLOWS WILL BE SAVED TO BUDGET FILE SPECIFIED IN OUTPUT CONTROL
 END NAMEFILE OPTIONS:

 DISV -- VERTEX GRID DISCRETIZATION PACKAGE, VERSION 1 : 12/23/2015 - INPUT READ FROM MEMPATH: __INPUT__/GEO_MODEL/DISV                          


 Setting Discretization Options
 End Setting Discretization Options

 Setting Discretization Dimensions
    NLAY = 3
    NCPL = 4090
    NVERT = 6662
 End Setting Discretization Dimensions

 Setting Discretization Griddata
    TOP set from input file
    BOTM set from input file
 End Setting Discretization Griddata

 Discretization Vertex data loaded
 Discretization Cell2d data loaded

 NPF -- NODE PROPERTY FLOW PACKAGE, VERSION 1, 3/30/2015 INPUT READ FROM MEMPATH: __INPUT__/GEO_MODEL/NPF                           


 IC -- Initial Conditions Package, Version 8, 3/28/2015 input read from mempath: __INPUT__/GEO_MODEL/IC                            


 Setting NPF Options
    Specific discharge will be calculated at cell centers and written to DATA-SPDIS in budget file when requested.
 End Setting NPF Options

 Setting NPF Griddata
    ICELLTYPE set from input file
    K set from input file
    K33 not provided.  Setting K33 = K.
    K22 not provided.  Setting K22 = K.
 End Setting NPF Griddata


 WEL   -- WEL PACKAGE, VERSION 8, 2/22/2014 INPUT READ FROM MEMPATH: __INPUT__/GEO_MODEL/WEL_0                         

 PROCESSING WEL BASE OPTIONS
 END OF WEL BASE OPTIONS

 PROCESSING WEL OPTIONS
 END OF WEL OPTIONS

 PROCESSING WEL BASE DIMENSIONS
    MAXBOUND =       3
 END OF WEL BASE DIMENSIONS

 RIV   -- RIV PACKAGE, VERSION 8, 2/22/2014 INPUT READ FROM MEMPATH: __INPUT__/GEO_MODEL/RIV_0                         

 PROCESSING RIV BASE OPTIONS
 END OF RIV BASE OPTIONS

 PROCESSING RIV OPTIONS
 END OF RIV OPTIONS

 PROCESSING RIV BASE DIMENSIONS
    MAXBOUND =    2012
 END OF RIV BASE DIMENSIONS

 GHB   -- GHB PACKAGE, VERSION 8, 2/22/2014 INPUT READ FROM MEMPATH: __INPUT__/GEO_MODEL/GHB_0                         

 PROCESSING GHB BASE OPTIONS
 END OF GHB BASE OPTIONS

 PROCESSING GHB OPTIONS
 END OF GHB OPTIONS

 PROCESSING GHB BASE DIMENSIONS
    MAXBOUND =      34
 END OF GHB BASE DIMENSIONS

 RCH   -- RCH PACKAGE, VERSION 8, 2/22/2014 INPUT READ FROM MEMPATH: __INPUT__/GEO_MODEL/RCH_0                         

 PROCESSING RCH BASE OPTIONS
 END OF RCH BASE OPTIONS

 PROCESSING RCH OPTIONS
 END OF RCH OPTIONS

 PROCESSING RCH BASE DIMENSIONS
    MAXBOUND =    1142
 END OF RCH BASE DIMENSIONS

 EVT   -- EVT PACKAGE, VERSION 8, 2/22/2014 INPUT READ FROM MEMPATH: __INPUT__/GEO_MODEL/EVTA_0                        

 PROCESSING EVT BASE OPTIONS
 END OF EVT BASE OPTIONS

 PROCESSING EVTA OPTIONS
    EVAPOTRANSPIRATION INPUT WILL BE READ AS ARRAYS.
 END OF EVTA OPTIONS
    STRT set from input file

 STO -- STORAGE PACKAGE, VERSION 1, 5/19/2014 INPUT READ FROM UNIT 1006


 # File generated by Flopy version 3.8.2 on 11/05/2024 at 17:39:17.
 PROCESSING STORAGE OPTIONS
 END OF STORAGE OPTIONS
 PROCESSING GRIDDATA

                 ICONVERT = 0

         SPECIFIC STORAGE =  0.1000000E-04

           SPECIFIC YIELD =  0.1500000    
 END PROCESSING GRIDDATA
    BINARY GRID INFORMATION WILL BE WRITTEN TO:
      UNIT NUMBER: 1018
      FILE NAME: geo_model.disv.grb

 OPENED geo_model.disv.grb
 FILE TYPE:DATA(BINARY)   UNIT 1018   STATUS:REPLACE             
 FORMAT:UNFORMATTED            ACCESS:STREAM              
 ACTION:READWRITE           

      THE LAST TIME STEP WILL BE PRINTED
      THE LAST TIME STEP WILL BE PRINTED
 # File generated by Flopy version 3.8.2 on 11/05/2024 at 17:39:17.

 PROCESSING OC OPTIONS

    BUDGET INFORMATION WILL BE WRITTEN TO:
      UNIT NUMBER: 1019
      FILE NAME: geo_model.cbc

 OPENED geo_model.cbc
 FILE TYPE:DATA(BINARY)   UNIT 1019   STATUS:REPLACE             
 FORMAT:UNFORMATTED            ACCESS:STREAM              
 ACTION:READWRITE           

    HEAD INFORMATION WILL BE WRITTEN TO:
      UNIT NUMBER: 1020
      FILE NAME: geo_model.hds

 OPENED geo_model.hds
 FILE TYPE:DATA(BINARY)   UNIT 1020   STATUS:REPLACE             
 FORMAT:UNFORMATTED            ACCESS:STREAM              
 ACTION:READWRITE           

 END OF OC OPTIONS

start timestep kper="1" kstp="1" mode="normal"


 BEGIN READING OUTPUT CONTROL FOR STRESS PERIOD 1
      ALL TIME STEPS WILL BE SAVED
      ALL TIME STEPS WILL BE SAVED

 END READING OUTPUT CONTROL FOR STRESS PERIOD 1


 STRESS PERIOD 1 IS TRANSIENT

 UBDSV1 SAVING           STO-SS ON UNIT   1019 AT TIME STEP      1, STRESS PERIOD      1
 UBDSV1 SAVING     FLOW-JA-FACE ON UNIT   1019 AT TIME STEP      1, STRESS PERIOD      1
 UBDSV06 SAVING       DATA-SPDIS IN MODEL GEO_MODEL        PACKAGE NPF             CONNECTED TO MODEL GEO_MODEL        PACKAGE NPF              ON UNIT   1019 AT TIME STEP      1, STRESS PERIOD      1
 UBDSV06 SAVING              WEL IN MODEL GEO_MODEL        PACKAGE GEO_MODEL       CONNECTED TO MODEL GEO_MODEL        PACKAGE WEL_0            ON UNIT   1019 AT TIME STEP      1, STRESS PERIOD      1
 UBDSV06 SAVING              RIV IN MODEL GEO_MODEL        PACKAGE GEO_MODEL       CONNECTED TO MODEL GEO_MODEL        PACKAGE RIV_0            ON UNIT   1019 AT TIME STEP      1, STRESS PERIOD      1
 UBDSV06 SAVING              GHB IN MODEL GEO_MODEL        PACKAGE GEO_MODEL       CONNECTED TO MODEL GEO_MODEL        PACKAGE GHB_0            ON UNIT   1019 AT TIME STEP      1, STRESS PERIOD      1
 UBDSV06 SAVING              RCH IN MODEL GEO_MODEL        PACKAGE GEO_MODEL       CONNECTED TO MODEL GEO_MODEL        PACKAGE RCH_0            ON UNIT   1019 AT TIME STEP      1, STRESS PERIOD      1
 UBDSV06 SAVING            EVTA  IN MODEL GEO_MODEL        PACKAGE GEO_MODEL       CONNECTED TO MODEL GEO_MODEL        PACKAGE EVTA_0           ON UNIT   1019 AT TIME STEP      1, STRESS PERIOD      1

 HEAD WILL BE SAVED ON UNIT 1020 AT END OF TIME STEP    1, STRESS PERIOD    1


  VOLUME BUDGET FOR ENTIRE MODEL AT END OF TIME STEP    1, STRESS PERIOD   1
  ---------------------------------------------------------------------------------------------------

     CUMULATIVE VOLUME      L**3       RATES FOR THIS TIME STEP      L**3/T          PACKAGE NAME    
     ------------------                 ------------------------                     ----------------

           IN:                                      IN:
           ---                                      ---
              STO-SS =         151.3633                STO-SS =         151.3633     STORAGE                          
                 WEL =           0.0000                   WEL =           0.0000     WEL_0                            
                 RIV =       8.6974E-02                   RIV =       8.6974E-02     RIV_0                            
                 GHB =           1.7387                   GHB =           1.7387     GHB_0                            
                 RCH =       3.0494E-02                   RCH =       3.0494E-02     RCH_0                            
                EVTA =           0.0000                  EVTA =           0.0000     EVTA_0                           

            TOTAL IN =         153.2195              TOTAL IN =         153.2195

          OUT:                                     OUT:
          ----                                     ----
              STO-SS =         148.7206                STO-SS =         148.7206     STORAGE                          
                 WEL =           0.0000                   WEL =           0.0000     WEL_0                            
                 RIV =       9.2850E-02                   RIV =       9.2850E-02     RIV_0                            
                 GHB =           4.2113                   GHB =           4.2113     GHB_0                            
                 RCH =           0.0000                   RCH =           0.0000     RCH_0                            
                EVTA =           0.1947                  EVTA =           0.1947     EVTA_0                           

           TOTAL OUT =         153.2194             TOTAL OUT =         153.2194

            IN - OUT =       5.3436E-06              IN - OUT =       5.3436E-06

 PERCENT DISCREPANCY =           0.00     PERCENT DISCREPANCY =           0.00




         TIME SUMMARY AT END OF TIME STEP    1 IN STRESS PERIOD    1
                    SECONDS     MINUTES      HOURS       DAYS        YEARS
                    -----------------------------------------------------------
   TIME STEP LENGTH  1.0000     1.66667E-02 2.77778E-04 1.15741E-05 3.16881E-08
 STRESS PERIOD TIME  1.0000     1.66667E-02 2.77778E-04 1.15741E-05 3.16881E-08
         TOTAL TIME  1.0000     1.66667E-02 2.77778E-04 1.15741E-05 3.16881E-08


end timestep


start timestep kper="2" kstp="1" mode="normal"


 END OF FILE DETECTED IN OUTPUT CONTROL.
 CURRENT OUTPUT CONTROL SETTINGS WILL BE 
 REPEATED UNTIL THE END OF THE SIMULATION.

 OUTPUT CONTROL FOR STRESS PERIOD 2 IS REPEATED USING SETTINGS FROM A PREVIOUS STRESS PERIOD.


 STRESS PERIOD 2 IS TRANSIENT

 UBDSV1 SAVING           STO-SS ON UNIT   1019 AT TIME STEP      1, STRESS PERIOD      2
 UBDSV1 SAVING     FLOW-JA-FACE ON UNIT   1019 AT TIME STEP      1, STRESS PERIOD      2
 UBDSV06 SAVING       DATA-SPDIS IN MODEL GEO_MODEL        PACKAGE NPF             CONNECTED TO MODEL GEO_MODEL        PACKAGE NPF              ON UNIT   1019 AT TIME STEP      1, STRESS PERIOD      2
 UBDSV06 SAVING              WEL IN MODEL GEO_MODEL        PACKAGE GEO_MODEL       CONNECTED TO MODEL GEO_MODEL        PACKAGE WEL_0            ON UNIT   1019 AT TIME STEP      1, STRESS PERIOD      2
 UBDSV06 SAVING              RIV IN MODEL GEO_MODEL        PACKAGE GEO_MODEL       CONNECTED TO MODEL GEO_MODEL        PACKAGE RIV_0            ON UNIT   1019 AT TIME STEP      1, STRESS PERIOD      2
 UBDSV06 SAVING              GHB IN MODEL GEO_MODEL        PACKAGE GEO_MODEL       CONNECTED TO MODEL GEO_MODEL        PACKAGE GHB_0            ON UNIT   1019 AT TIME STEP      1, STRESS PERIOD      2
 UBDSV06 SAVING              RCH IN MODEL GEO_MODEL        PACKAGE GEO_MODEL       CONNECTED TO MODEL GEO_MODEL        PACKAGE RCH_0            ON UNIT   1019 AT TIME STEP      1, STRESS PERIOD      2
 UBDSV06 SAVING            EVTA  IN MODEL GEO_MODEL        PACKAGE GEO_MODEL       CONNECTED TO MODEL GEO_MODEL        PACKAGE EVTA_0           ON UNIT   1019 AT TIME STEP      1, STRESS PERIOD      2

 HEAD WILL BE SAVED ON UNIT 1020 AT END OF TIME STEP    1, STRESS PERIOD    2

end timestep


start timestep kper="2" kstp="2" mode="normal"

 UBDSV1 SAVING           STO-SS ON UNIT   1019 AT TIME STEP      2, STRESS PERIOD      2
 UBDSV1 SAVING     FLOW-JA-FACE ON UNIT   1019 AT TIME STEP      2, STRESS PERIOD      2
 UBDSV06 SAVING       DATA-SPDIS IN MODEL GEO_MODEL        PACKAGE NPF             CONNECTED TO MODEL GEO_MODEL        PACKAGE NPF              ON UNIT   1019 AT TIME STEP      2, STRESS PERIOD      2
 UBDSV06 SAVING              WEL IN MODEL GEO_MODEL        PACKAGE GEO_MODEL       CONNECTED TO MODEL GEO_MODEL        PACKAGE WEL_0            ON UNIT   1019 AT TIME STEP      2, STRESS PERIOD      2
 UBDSV06 SAVING              RIV IN MODEL GEO_MODEL        PACKAGE GEO_MODEL       CONNECTED TO MODEL GEO_MODEL        PACKAGE RIV_0            ON UNIT   1019 AT TIME STEP      2, STRESS PERIOD      2
 UBDSV06 SAVING              GHB IN MODEL GEO_MODEL        PACKAGE GEO_MODEL       CONNECTED TO MODEL GEO_MODEL        PACKAGE GHB_0            ON UNIT   1019 AT TIME STEP      2, STRESS PERIOD      2
 UBDSV06 SAVING              RCH IN MODEL GEO_MODEL        PACKAGE GEO_MODEL       CONNECTED TO MODEL GEO_MODEL        PACKAGE RCH_0            ON UNIT   1019 AT TIME STEP      2, STRESS PERIOD      2
 UBDSV06 SAVING            EVTA  IN MODEL GEO_MODEL        PACKAGE GEO_MODEL       CONNECTED TO MODEL GEO_MODEL        PACKAGE EVTA_0           ON UNIT   1019 AT TIME STEP      2, STRESS PERIOD      2

 HEAD WILL BE SAVED ON UNIT 1020 AT END OF TIME STEP    2, STRESS PERIOD    2

end timestep


start timestep kper="2" kstp="3" mode="normal"

 UBDSV1 SAVING           STO-SS ON UNIT   1019 AT TIME STEP      3, STRESS PERIOD      2
 UBDSV1 SAVING     FLOW-JA-FACE ON UNIT   1019 AT TIME STEP      3, STRESS PERIOD      2
 UBDSV06 SAVING       DATA-SPDIS IN MODEL GEO_MODEL        PACKAGE NPF             CONNECTED TO MODEL GEO_MODEL        PACKAGE NPF              ON UNIT   1019 AT TIME STEP      3, STRESS PERIOD      2
 UBDSV06 SAVING              WEL IN MODEL GEO_MODEL        PACKAGE GEO_MODEL       CONNECTED TO MODEL GEO_MODEL        PACKAGE WEL_0            ON UNIT   1019 AT TIME STEP      3, STRESS PERIOD      2
 UBDSV06 SAVING              RIV IN MODEL GEO_MODEL        PACKAGE GEO_MODEL       CONNECTED TO MODEL GEO_MODEL        PACKAGE RIV_0            ON UNIT   1019 AT TIME STEP      3, STRESS PERIOD      2
 UBDSV06 SAVING              GHB IN MODEL GEO_MODEL        PACKAGE GEO_MODEL       CONNECTED TO MODEL GEO_MODEL        PACKAGE GHB_0            ON UNIT   1019 AT TIME STEP      3, STRESS PERIOD      2
 UBDSV06 SAVING              RCH IN MODEL GEO_MODEL        PACKAGE GEO_MODEL       CONNECTED TO MODEL GEO_MODEL        PACKAGE RCH_0            ON UNIT   1019 AT TIME STEP      3, STRESS PERIOD      2
 UBDSV06 SAVING            EVTA  IN MODEL GEO_MODEL        PACKAGE GEO_MODEL       CONNECTED TO MODEL GEO_MODEL        PACKAGE EVTA_0           ON UNIT   1019 AT TIME STEP      3, STRESS PERIOD      2

 HEAD WILL BE SAVED ON UNIT 1020 AT END OF TIME STEP    3, STRESS PERIOD    2

end timestep


start timestep kper="2" kstp="4" mode="normal"

 UBDSV1 SAVING           STO-SS ON UNIT   1019 AT TIME STEP      4, STRESS PERIOD      2
 UBDSV1 SAVING     FLOW-JA-FACE ON UNIT   1019 AT TIME STEP      4, STRESS PERIOD      2
 UBDSV06 SAVING       DATA-SPDIS IN MODEL GEO_MODEL        PACKAGE NPF             CONNECTED TO MODEL GEO_MODEL        PACKAGE NPF              ON UNIT   1019 AT TIME STEP      4, STRESS PERIOD      2
 UBDSV06 SAVING              WEL IN MODEL GEO_MODEL        PACKAGE GEO_MODEL       CONNECTED TO MODEL GEO_MODEL        PACKAGE WEL_0            ON UNIT   1019 AT TIME STEP      4, STRESS PERIOD      2
 UBDSV06 SAVING              RIV IN MODEL GEO_MODEL        PACKAGE GEO_MODEL       CONNECTED TO MODEL GEO_MODEL        PACKAGE RIV_0            ON UNIT   1019 AT TIME STEP      4, STRESS PERIOD      2
 UBDSV06 SAVING              GHB IN MODEL GEO_MODEL        PACKAGE GEO_MODEL       CONNECTED TO MODEL GEO_MODEL        PACKAGE GHB_0            ON UNIT   1019 AT TIME STEP      4, STRESS PERIOD      2
 UBDSV06 SAVING              RCH IN MODEL GEO_MODEL        PACKAGE GEO_MODEL       CONNECTED TO MODEL GEO_MODEL        PACKAGE RCH_0            ON UNIT   1019 AT TIME STEP      4, STRESS PERIOD      2
 UBDSV06 SAVING            EVTA  IN MODEL GEO_MODEL        PACKAGE GEO_MODEL       CONNECTED TO MODEL GEO_MODEL        PACKAGE EVTA_0           ON UNIT   1019 AT TIME STEP      4, STRESS PERIOD      2

 HEAD WILL BE SAVED ON UNIT 1020 AT END OF TIME STEP    4, STRESS PERIOD    2


  VOLUME BUDGET FOR ENTIRE MODEL AT END OF TIME STEP    4, STRESS PERIOD   2
  ---------------------------------------------------------------------------------------------------

     CUMULATIVE VOLUME      L**3       RATES FOR THIS TIME STEP      L**3/T          PACKAGE NAME    
     ------------------                 ------------------------                     ----------------

           IN:                                      IN:
           ---                                      ---
              STO-SS =       97094.3338                STO-SS =       1.6808E-07     STORAGE                          
                 WEL =           0.0000                   WEL =           0.0000     WEL_0                            
                 RIV =    14910876.4613                   RIV =           0.8665     RIV_0                            
                 GHB =    51538039.5427                   GHB =           2.9826     GHB_0                            
                 RCH =      526936.2326                   RCH =       3.0494E-02     RCH_0                            
                EVTA =           0.0000                  EVTA =           0.0000     EVTA_0                           

            TOTAL IN =    67072946.5704              TOTAL IN =           3.8796

          OUT:                                     OUT:
          ----                                     ----
              STO-SS =        5923.6155                STO-SS =       1.6552E-08     STORAGE                          
                 WEL =     7776000.0000                   WEL =           0.4500     WEL_0                            
                 RIV =     7471891.0596                   RIV =           0.4310     RIV_0                            
                 GHB =    51277966.4073                   GHB =           2.9674     GHB_0                            
                 RCH =           0.0000                   RCH =           0.0000     RCH_0                            
                EVTA =      553442.3066                  EVTA =       3.1884E-02     EVTA_0                           

           TOTAL OUT =    67085223.3890             TOTAL OUT =           3.8803

            IN - OUT =      -12276.8186              IN - OUT =      -7.5046E-04

 PERCENT DISCREPANCY =          -0.02     PERCENT DISCREPANCY =          -0.02




         TIME SUMMARY AT END OF TIME STEP    4 IN STRESS PERIOD    2
                    SECONDS     MINUTES      HOURS       DAYS        YEARS
                    -----------------------------------------------------------
   TIME STEP LENGTH 4.32000E+06  72000.      1200.0      50.000     0.13689    
 STRESS PERIOD TIME 1.72800E+07 2.88000E+05  4800.0      200.00     0.54757    
         TOTAL TIME 1.72800E+07 2.88000E+05  4800.0      200.00     0.54757    


end timestep


start timestep kper="3" kstp="1" mode="normal"


 OUTPUT CONTROL FOR STRESS PERIOD 3 IS REPEATED USING SETTINGS FROM A PREVIOUS STRESS PERIOD.


 STRESS PERIOD 3 IS TRANSIENT

 UBDSV1 SAVING           STO-SS ON UNIT   1019 AT TIME STEP      1, STRESS PERIOD      3
 UBDSV1 SAVING     FLOW-JA-FACE ON UNIT   1019 AT TIME STEP      1, STRESS PERIOD      3
 UBDSV06 SAVING       DATA-SPDIS IN MODEL GEO_MODEL        PACKAGE NPF             CONNECTED TO MODEL GEO_MODEL        PACKAGE NPF              ON UNIT   1019 AT TIME STEP      1, STRESS PERIOD      3
 UBDSV06 SAVING              WEL IN MODEL GEO_MODEL        PACKAGE GEO_MODEL       CONNECTED TO MODEL GEO_MODEL        PACKAGE WEL_0            ON UNIT   1019 AT TIME STEP      1, STRESS PERIOD      3
 UBDSV06 SAVING              RIV IN MODEL GEO_MODEL        PACKAGE GEO_MODEL       CONNECTED TO MODEL GEO_MODEL        PACKAGE RIV_0            ON UNIT   1019 AT TIME STEP      1, STRESS PERIOD      3
 UBDSV06 SAVING              GHB IN MODEL GEO_MODEL        PACKAGE GEO_MODEL       CONNECTED TO MODEL GEO_MODEL        PACKAGE GHB_0            ON UNIT   1019 AT TIME STEP      1, STRESS PERIOD      3
 UBDSV06 SAVING              RCH IN MODEL GEO_MODEL        PACKAGE GEO_MODEL       CONNECTED TO MODEL GEO_MODEL        PACKAGE RCH_0            ON UNIT   1019 AT TIME STEP      1, STRESS PERIOD      3
 UBDSV06 SAVING            EVTA  IN MODEL GEO_MODEL        PACKAGE GEO_MODEL       CONNECTED TO MODEL GEO_MODEL        PACKAGE EVTA_0           ON UNIT   1019 AT TIME STEP      1, STRESS PERIOD      3

 HEAD WILL BE SAVED ON UNIT 1020 AT END OF TIME STEP    1, STRESS PERIOD    3

end timestep


start timestep kper="3" kstp="2" mode="normal"

 UBDSV1 SAVING           STO-SS ON UNIT   1019 AT TIME STEP      2, STRESS PERIOD      3
 UBDSV1 SAVING     FLOW-JA-FACE ON UNIT   1019 AT TIME STEP      2, STRESS PERIOD      3
 UBDSV06 SAVING       DATA-SPDIS IN MODEL GEO_MODEL        PACKAGE NPF             CONNECTED TO MODEL GEO_MODEL        PACKAGE NPF              ON UNIT   1019 AT TIME STEP      2, STRESS PERIOD      3
 UBDSV06 SAVING              WEL IN MODEL GEO_MODEL        PACKAGE GEO_MODEL       CONNECTED TO MODEL GEO_MODEL        PACKAGE WEL_0            ON UNIT   1019 AT TIME STEP      2, STRESS PERIOD      3
 UBDSV06 SAVING              RIV IN MODEL GEO_MODEL        PACKAGE GEO_MODEL       CONNECTED TO MODEL GEO_MODEL        PACKAGE RIV_0            ON UNIT   1019 AT TIME STEP      2, STRESS PERIOD      3
 UBDSV06 SAVING              GHB IN MODEL GEO_MODEL        PACKAGE GEO_MODEL       CONNECTED TO MODEL GEO_MODEL        PACKAGE GHB_0            ON UNIT   1019 AT TIME STEP      2, STRESS PERIOD      3
 UBDSV06 SAVING              RCH IN MODEL GEO_MODEL        PACKAGE GEO_MODEL       CONNECTED TO MODEL GEO_MODEL        PACKAGE RCH_0            ON UNIT   1019 AT TIME STEP      2, STRESS PERIOD      3
 UBDSV06 SAVING            EVTA  IN MODEL GEO_MODEL        PACKAGE GEO_MODEL       CONNECTED TO MODEL GEO_MODEL        PACKAGE EVTA_0           ON UNIT   1019 AT TIME STEP      2, STRESS PERIOD      3

 HEAD WILL BE SAVED ON UNIT 1020 AT END OF TIME STEP    2, STRESS PERIOD    3

end timestep


start timestep kper="3" kstp="3" mode="normal"

 UBDSV1 SAVING           STO-SS ON UNIT   1019 AT TIME STEP      3, STRESS PERIOD      3
 UBDSV1 SAVING     FLOW-JA-FACE ON UNIT   1019 AT TIME STEP      3, STRESS PERIOD      3
 UBDSV06 SAVING       DATA-SPDIS IN MODEL GEO_MODEL        PACKAGE NPF             CONNECTED TO MODEL GEO_MODEL        PACKAGE NPF              ON UNIT   1019 AT TIME STEP      3, STRESS PERIOD      3
 UBDSV06 SAVING              WEL IN MODEL GEO_MODEL        PACKAGE GEO_MODEL       CONNECTED TO MODEL GEO_MODEL        PACKAGE WEL_0            ON UNIT   1019 AT TIME STEP      3, STRESS PERIOD      3
 UBDSV06 SAVING              RIV IN MODEL GEO_MODEL        PACKAGE GEO_MODEL       CONNECTED TO MODEL GEO_MODEL        PACKAGE RIV_0            ON UNIT   1019 AT TIME STEP      3, STRESS PERIOD      3
 UBDSV06 SAVING              GHB IN MODEL GEO_MODEL        PACKAGE GEO_MODEL       CONNECTED TO MODEL GEO_MODEL        PACKAGE GHB_0            ON UNIT   1019 AT TIME STEP      3, STRESS PERIOD      3
 UBDSV06 SAVING              RCH IN MODEL GEO_MODEL        PACKAGE GEO_MODEL       CONNECTED TO MODEL GEO_MODEL        PACKAGE RCH_0            ON UNIT   1019 AT TIME STEP      3, STRESS PERIOD      3
 UBDSV06 SAVING            EVTA  IN MODEL GEO_MODEL        PACKAGE GEO_MODEL       CONNECTED TO MODEL GEO_MODEL        PACKAGE EVTA_0           ON UNIT   1019 AT TIME STEP      3, STRESS PERIOD      3

 HEAD WILL BE SAVED ON UNIT 1020 AT END OF TIME STEP    3, STRESS PERIOD    3

end timestep


start timestep kper="3" kstp="4" mode="normal"

 UBDSV1 SAVING           STO-SS ON UNIT   1019 AT TIME STEP      4, STRESS PERIOD      3
 UBDSV1 SAVING     FLOW-JA-FACE ON UNIT   1019 AT TIME STEP      4, STRESS PERIOD      3
 UBDSV06 SAVING       DATA-SPDIS IN MODEL GEO_MODEL        PACKAGE NPF             CONNECTED TO MODEL GEO_MODEL        PACKAGE NPF              ON UNIT   1019 AT TIME STEP      4, STRESS PERIOD      3
 UBDSV06 SAVING              WEL IN MODEL GEO_MODEL        PACKAGE GEO_MODEL       CONNECTED TO MODEL GEO_MODEL        PACKAGE WEL_0            ON UNIT   1019 AT TIME STEP      4, STRESS PERIOD      3
 UBDSV06 SAVING              RIV IN MODEL GEO_MODEL        PACKAGE GEO_MODEL       CONNECTED TO MODEL GEO_MODEL        PACKAGE RIV_0            ON UNIT   1019 AT TIME STEP      4, STRESS PERIOD      3
 UBDSV06 SAVING              GHB IN MODEL GEO_MODEL        PACKAGE GEO_MODEL       CONNECTED TO MODEL GEO_MODEL        PACKAGE GHB_0            ON UNIT   1019 AT TIME STEP      4, STRESS PERIOD      3
 UBDSV06 SAVING              RCH IN MODEL GEO_MODEL        PACKAGE GEO_MODEL       CONNECTED TO MODEL GEO_MODEL        PACKAGE RCH_0            ON UNIT   1019 AT TIME STEP      4, STRESS PERIOD      3
 UBDSV06 SAVING            EVTA  IN MODEL GEO_MODEL        PACKAGE GEO_MODEL       CONNECTED TO MODEL GEO_MODEL        PACKAGE EVTA_0           ON UNIT   1019 AT TIME STEP      4, STRESS PERIOD      3

 HEAD WILL BE SAVED ON UNIT 1020 AT END OF TIME STEP    4, STRESS PERIOD    3


  VOLUME BUDGET FOR ENTIRE MODEL AT END OF TIME STEP    4, STRESS PERIOD   3
  ---------------------------------------------------------------------------------------------------

     CUMULATIVE VOLUME      L**3       RATES FOR THIS TIME STEP      L**3/T          PACKAGE NAME    
     ------------------                 ------------------------                     ----------------

           IN:                                      IN:
           ---                                      ---
              STO-SS =       97095.6230                STO-SS =       1.0223E-07     STORAGE                          
                 WEL =           0.0000                   WEL =           0.0000     WEL_0                            
                 RIV =    29884510.1438                   RIV =           0.8665     RIV_0                            
                 GHB =   103076707.3698                   GHB =           2.9826     GHB_0                            
                 RCH =     1053872.4347                   RCH =       3.0494E-02     RCH_0                            
                EVTA =           0.0000                  EVTA =           0.0000     EVTA_0                           

            TOTAL IN =   134112185.5713              TOTAL IN =           3.8796

          OUT:                                     OUT:
          ----                                     ----
              STO-SS =        5923.6381                STO-SS =       1.0941E-10     STORAGE                          
                 WEL =    15552000.0000                   WEL =           0.4500     WEL_0                            
                 RIV =    14919563.5831                   RIV =           0.4310     RIV_0                            
                 GHB =   102555298.5802                   GHB =           2.9674     GHB_0                            
                 RCH =           0.0000                   RCH =           0.0000     RCH_0                            
                EVTA =     1104402.0715                  EVTA =       3.1884E-02     EVTA_0                           

           TOTAL OUT =   134137187.8729             TOTAL OUT =           3.8803

            IN - OUT =      -25002.3016              IN - OUT =      -7.2741E-04

 PERCENT DISCREPANCY =          -0.02     PERCENT DISCREPANCY =          -0.02




         TIME SUMMARY AT END OF TIME STEP    4 IN STRESS PERIOD    3
                    SECONDS     MINUTES      HOURS       DAYS        YEARS
                    -----------------------------------------------------------
   TIME STEP LENGTH 4.32000E+06  72000.      1200.0      50.000     0.13689    
 STRESS PERIOD TIME 1.72800E+07 2.88000E+05  4800.0      200.00     0.54757    
         TOTAL TIME 3.45600E+07 5.76000E+05  9600.0      400.00      1.0951    


end timestep


start timestep kper="4" kstp="1" mode="normal"


 OUTPUT CONTROL FOR STRESS PERIOD 4 IS REPEATED USING SETTINGS FROM A PREVIOUS STRESS PERIOD.


 STRESS PERIOD 4 IS TRANSIENT

 UBDSV1 SAVING           STO-SS ON UNIT   1019 AT TIME STEP      1, STRESS PERIOD      4
 UBDSV1 SAVING     FLOW-JA-FACE ON UNIT   1019 AT TIME STEP      1, STRESS PERIOD      4
 UBDSV06 SAVING       DATA-SPDIS IN MODEL GEO_MODEL        PACKAGE NPF             CONNECTED TO MODEL GEO_MODEL        PACKAGE NPF              ON UNIT   1019 AT TIME STEP      1, STRESS PERIOD      4
 UBDSV06 SAVING              WEL IN MODEL GEO_MODEL        PACKAGE GEO_MODEL       CONNECTED TO MODEL GEO_MODEL        PACKAGE WEL_0            ON UNIT   1019 AT TIME STEP      1, STRESS PERIOD      4
 UBDSV06 SAVING              RIV IN MODEL GEO_MODEL        PACKAGE GEO_MODEL       CONNECTED TO MODEL GEO_MODEL        PACKAGE RIV_0            ON UNIT   1019 AT TIME STEP      1, STRESS PERIOD      4
 UBDSV06 SAVING              GHB IN MODEL GEO_MODEL        PACKAGE GEO_MODEL       CONNECTED TO MODEL GEO_MODEL        PACKAGE GHB_0            ON UNIT   1019 AT TIME STEP      1, STRESS PERIOD      4
 UBDSV06 SAVING              RCH IN MODEL GEO_MODEL        PACKAGE GEO_MODEL       CONNECTED TO MODEL GEO_MODEL        PACKAGE RCH_0            ON UNIT   1019 AT TIME STEP      1, STRESS PERIOD      4
 UBDSV06 SAVING            EVTA  IN MODEL GEO_MODEL        PACKAGE GEO_MODEL       CONNECTED TO MODEL GEO_MODEL        PACKAGE EVTA_0           ON UNIT   1019 AT TIME STEP      1, STRESS PERIOD      4

 HEAD WILL BE SAVED ON UNIT 1020 AT END OF TIME STEP    1, STRESS PERIOD    4

end timestep


start timestep kper="4" kstp="2" mode="normal"

 UBDSV1 SAVING           STO-SS ON UNIT   1019 AT TIME STEP      2, STRESS PERIOD      4
 UBDSV1 SAVING     FLOW-JA-FACE ON UNIT   1019 AT TIME STEP      2, STRESS PERIOD      4
 UBDSV06 SAVING       DATA-SPDIS IN MODEL GEO_MODEL        PACKAGE NPF             CONNECTED TO MODEL GEO_MODEL        PACKAGE NPF              ON UNIT   1019 AT TIME STEP      2, STRESS PERIOD      4
 UBDSV06 SAVING              WEL IN MODEL GEO_MODEL        PACKAGE GEO_MODEL       CONNECTED TO MODEL GEO_MODEL        PACKAGE WEL_0            ON UNIT   1019 AT TIME STEP      2, STRESS PERIOD      4
 UBDSV06 SAVING              RIV IN MODEL GEO_MODEL        PACKAGE GEO_MODEL       CONNECTED TO MODEL GEO_MODEL        PACKAGE RIV_0            ON UNIT   1019 AT TIME STEP      2, STRESS PERIOD      4
 UBDSV06 SAVING              GHB IN MODEL GEO_MODEL        PACKAGE GEO_MODEL       CONNECTED TO MODEL GEO_MODEL        PACKAGE GHB_0            ON UNIT   1019 AT TIME STEP      2, STRESS PERIOD      4
 UBDSV06 SAVING              RCH IN MODEL GEO_MODEL        PACKAGE GEO_MODEL       CONNECTED TO MODEL GEO_MODEL        PACKAGE RCH_0            ON UNIT   1019 AT TIME STEP      2, STRESS PERIOD      4
 UBDSV06 SAVING            EVTA  IN MODEL GEO_MODEL        PACKAGE GEO_MODEL       CONNECTED TO MODEL GEO_MODEL        PACKAGE EVTA_0           ON UNIT   1019 AT TIME STEP      2, STRESS PERIOD      4

 HEAD WILL BE SAVED ON UNIT 1020 AT END OF TIME STEP    2, STRESS PERIOD    4

end timestep


start timestep kper="4" kstp="3" mode="normal"

 UBDSV1 SAVING           STO-SS ON UNIT   1019 AT TIME STEP      3, STRESS PERIOD      4
 UBDSV1 SAVING     FLOW-JA-FACE ON UNIT   1019 AT TIME STEP      3, STRESS PERIOD      4
 UBDSV06 SAVING       DATA-SPDIS IN MODEL GEO_MODEL        PACKAGE NPF             CONNECTED TO MODEL GEO_MODEL        PACKAGE NPF              ON UNIT   1019 AT TIME STEP      3, STRESS PERIOD      4
 UBDSV06 SAVING              WEL IN MODEL GEO_MODEL        PACKAGE GEO_MODEL       CONNECTED TO MODEL GEO_MODEL        PACKAGE WEL_0            ON UNIT   1019 AT TIME STEP      3, STRESS PERIOD      4
 UBDSV06 SAVING              RIV IN MODEL GEO_MODEL        PACKAGE GEO_MODEL       CONNECTED TO MODEL GEO_MODEL        PACKAGE RIV_0            ON UNIT   1019 AT TIME STEP      3, STRESS PERIOD      4
 UBDSV06 SAVING              GHB IN MODEL GEO_MODEL        PACKAGE GEO_MODEL       CONNECTED TO MODEL GEO_MODEL        PACKAGE GHB_0            ON UNIT   1019 AT TIME STEP      3, STRESS PERIOD      4
 UBDSV06 SAVING              RCH IN MODEL GEO_MODEL        PACKAGE GEO_MODEL       CONNECTED TO MODEL GEO_MODEL        PACKAGE RCH_0            ON UNIT   1019 AT TIME STEP      3, STRESS PERIOD      4
 UBDSV06 SAVING            EVTA  IN MODEL GEO_MODEL        PACKAGE GEO_MODEL       CONNECTED TO MODEL GEO_MODEL        PACKAGE EVTA_0           ON UNIT   1019 AT TIME STEP      3, STRESS PERIOD      4

 HEAD WILL BE SAVED ON UNIT 1020 AT END OF TIME STEP    3, STRESS PERIOD    4

end timestep


start timestep kper="4" kstp="4" mode="normal"

 UBDSV1 SAVING           STO-SS ON UNIT   1019 AT TIME STEP      4, STRESS PERIOD      4
 UBDSV1 SAVING     FLOW-JA-FACE ON UNIT   1019 AT TIME STEP      4, STRESS PERIOD      4
 UBDSV06 SAVING       DATA-SPDIS IN MODEL GEO_MODEL        PACKAGE NPF             CONNECTED TO MODEL GEO_MODEL        PACKAGE NPF              ON UNIT   1019 AT TIME STEP      4, STRESS PERIOD      4
 UBDSV06 SAVING              WEL IN MODEL GEO_MODEL        PACKAGE GEO_MODEL       CONNECTED TO MODEL GEO_MODEL        PACKAGE WEL_0            ON UNIT   1019 AT TIME STEP      4, STRESS PERIOD      4
 UBDSV06 SAVING              RIV IN MODEL GEO_MODEL        PACKAGE GEO_MODEL       CONNECTED TO MODEL GEO_MODEL        PACKAGE RIV_0            ON UNIT   1019 AT TIME STEP      4, STRESS PERIOD      4
 UBDSV06 SAVING              GHB IN MODEL GEO_MODEL        PACKAGE GEO_MODEL       CONNECTED TO MODEL GEO_MODEL        PACKAGE GHB_0            ON UNIT   1019 AT TIME STEP      4, STRESS PERIOD      4
 UBDSV06 SAVING              RCH IN MODEL GEO_MODEL        PACKAGE GEO_MODEL       CONNECTED TO MODEL GEO_MODEL        PACKAGE RCH_0            ON UNIT   1019 AT TIME STEP      4, STRESS PERIOD      4
 UBDSV06 SAVING            EVTA  IN MODEL GEO_MODEL        PACKAGE GEO_MODEL       CONNECTED TO MODEL GEO_MODEL        PACKAGE EVTA_0           ON UNIT   1019 AT TIME STEP      4, STRESS PERIOD      4

 HEAD WILL BE SAVED ON UNIT 1020 AT END OF TIME STEP    4, STRESS PERIOD    4


  VOLUME BUDGET FOR ENTIRE MODEL AT END OF TIME STEP    4, STRESS PERIOD   4
  ---------------------------------------------------------------------------------------------------

     CUMULATIVE VOLUME      L**3       RATES FOR THIS TIME STEP      L**3/T          PACKAGE NAME    
     ------------------                 ------------------------                     ----------------

           IN:                                      IN:
           ---                                      ---
              STO-SS =       97098.1007                STO-SS =       3.5721E-07     STORAGE                          
                 WEL =           0.0000                   WEL =           0.0000     WEL_0                            
                 RIV =    44858501.3092                   RIV =           0.8666     RIV_0                            
                 GHB =   154615377.3118                   GHB =           2.9826     GHB_0                            
                 RCH =     1580808.6368                   RCH =       3.0494E-02     RCH_0                            
                EVTA =           0.0000                  EVTA =           0.0000     EVTA_0                           

            TOTAL IN =   201151785.3584              TOTAL IN =           3.8796

          OUT:                                     OUT:
          ----                                     ----
              STO-SS =        5923.6430                STO-SS =       1.3845E-12     STORAGE                          
                 WEL =    23328000.0000                   WEL =           0.4500     WEL_0                            
                 RIV =    22367121.4448                   RIV =           0.4310     RIV_0                            
                 GHB =   153832628.6382                   GHB =           2.9674     GHB_0                            
                 RCH =           0.0000                   RCH =           0.0000     RCH_0                            
                EVTA =     1655355.1828                  EVTA =       3.1884E-02     EVTA_0                           

           TOTAL OUT =   201189028.9088             TOTAL OUT =           3.8803

            IN - OUT =      -37243.5504              IN - OUT =      -6.8552E-04

 PERCENT DISCREPANCY =          -0.02     PERCENT DISCREPANCY =          -0.02




         TIME SUMMARY AT END OF TIME STEP    4 IN STRESS PERIOD    4
                    SECONDS     MINUTES      HOURS       DAYS        YEARS
                    -----------------------------------------------------------
   TIME STEP LENGTH 4.32000E+06  72000.      1200.0      50.000     0.13689    
 STRESS PERIOD TIME 1.72800E+07 2.88000E+05  4800.0      200.00     0.54757    
         TOTAL TIME 5.18400E+07 8.64000E+05  14400.      600.00      1.6427    


end timestep


start timestep kper="5" kstp="1" mode="normal"


 OUTPUT CONTROL FOR STRESS PERIOD 5 IS REPEATED USING SETTINGS FROM A PREVIOUS STRESS PERIOD.


 STRESS PERIOD 5 IS TRANSIENT

 UBDSV1 SAVING           STO-SS ON UNIT   1019 AT TIME STEP      1, STRESS PERIOD      5
 UBDSV1 SAVING     FLOW-JA-FACE ON UNIT   1019 AT TIME STEP      1, STRESS PERIOD      5
 UBDSV06 SAVING       DATA-SPDIS IN MODEL GEO_MODEL        PACKAGE NPF             CONNECTED TO MODEL GEO_MODEL        PACKAGE NPF              ON UNIT   1019 AT TIME STEP      1, STRESS PERIOD      5
 UBDSV06 SAVING              WEL IN MODEL GEO_MODEL        PACKAGE GEO_MODEL       CONNECTED TO MODEL GEO_MODEL        PACKAGE WEL_0            ON UNIT   1019 AT TIME STEP      1, STRESS PERIOD      5
 UBDSV06 SAVING              RIV IN MODEL GEO_MODEL        PACKAGE GEO_MODEL       CONNECTED TO MODEL GEO_MODEL        PACKAGE RIV_0            ON UNIT   1019 AT TIME STEP      1, STRESS PERIOD      5
 UBDSV06 SAVING              GHB IN MODEL GEO_MODEL        PACKAGE GEO_MODEL       CONNECTED TO MODEL GEO_MODEL        PACKAGE GHB_0            ON UNIT   1019 AT TIME STEP      1, STRESS PERIOD      5
 UBDSV06 SAVING              RCH IN MODEL GEO_MODEL        PACKAGE GEO_MODEL       CONNECTED TO MODEL GEO_MODEL        PACKAGE RCH_0            ON UNIT   1019 AT TIME STEP      1, STRESS PERIOD      5
 UBDSV06 SAVING            EVTA  IN MODEL GEO_MODEL        PACKAGE GEO_MODEL       CONNECTED TO MODEL GEO_MODEL        PACKAGE EVTA_0           ON UNIT   1019 AT TIME STEP      1, STRESS PERIOD      5

 HEAD WILL BE SAVED ON UNIT 1020 AT END OF TIME STEP    1, STRESS PERIOD    5

end timestep


start timestep kper="5" kstp="2" mode="normal"

 UBDSV1 SAVING           STO-SS ON UNIT   1019 AT TIME STEP      2, STRESS PERIOD      5
 UBDSV1 SAVING     FLOW-JA-FACE ON UNIT   1019 AT TIME STEP      2, STRESS PERIOD      5
 UBDSV06 SAVING       DATA-SPDIS IN MODEL GEO_MODEL        PACKAGE NPF             CONNECTED TO MODEL GEO_MODEL        PACKAGE NPF              ON UNIT   1019 AT TIME STEP      2, STRESS PERIOD      5
 UBDSV06 SAVING              WEL IN MODEL GEO_MODEL        PACKAGE GEO_MODEL       CONNECTED TO MODEL GEO_MODEL        PACKAGE WEL_0            ON UNIT   1019 AT TIME STEP      2, STRESS PERIOD      5
 UBDSV06 SAVING              RIV IN MODEL GEO_MODEL        PACKAGE GEO_MODEL       CONNECTED TO MODEL GEO_MODEL        PACKAGE RIV_0            ON UNIT   1019 AT TIME STEP      2, STRESS PERIOD      5
 UBDSV06 SAVING              GHB IN MODEL GEO_MODEL        PACKAGE GEO_MODEL       CONNECTED TO MODEL GEO_MODEL        PACKAGE GHB_0            ON UNIT   1019 AT TIME STEP      2, STRESS PERIOD      5
 UBDSV06 SAVING              RCH IN MODEL GEO_MODEL        PACKAGE GEO_MODEL       CONNECTED TO MODEL GEO_MODEL        PACKAGE RCH_0            ON UNIT   1019 AT TIME STEP      2, STRESS PERIOD      5
 UBDSV06 SAVING            EVTA  IN MODEL GEO_MODEL        PACKAGE GEO_MODEL       CONNECTED TO MODEL GEO_MODEL        PACKAGE EVTA_0           ON UNIT   1019 AT TIME STEP      2, STRESS PERIOD      5

 HEAD WILL BE SAVED ON UNIT 1020 AT END OF TIME STEP    2, STRESS PERIOD    5

end timestep


start timestep kper="5" kstp="3" mode="normal"

 UBDSV1 SAVING           STO-SS ON UNIT   1019 AT TIME STEP      3, STRESS PERIOD      5
 UBDSV1 SAVING     FLOW-JA-FACE ON UNIT   1019 AT TIME STEP      3, STRESS PERIOD      5
 UBDSV06 SAVING       DATA-SPDIS IN MODEL GEO_MODEL        PACKAGE NPF             CONNECTED TO MODEL GEO_MODEL        PACKAGE NPF              ON UNIT   1019 AT TIME STEP      3, STRESS PERIOD      5
 UBDSV06 SAVING              WEL IN MODEL GEO_MODEL        PACKAGE GEO_MODEL       CONNECTED TO MODEL GEO_MODEL        PACKAGE WEL_0            ON UNIT   1019 AT TIME STEP      3, STRESS PERIOD      5
 UBDSV06 SAVING              RIV IN MODEL GEO_MODEL        PACKAGE GEO_MODEL       CONNECTED TO MODEL GEO_MODEL        PACKAGE RIV_0            ON UNIT   1019 AT TIME STEP      3, STRESS PERIOD      5
 UBDSV06 SAVING              GHB IN MODEL GEO_MODEL        PACKAGE GEO_MODEL       CONNECTED TO MODEL GEO_MODEL        PACKAGE GHB_0            ON UNIT   1019 AT TIME STEP      3, STRESS PERIOD      5
 UBDSV06 SAVING              RCH IN MODEL GEO_MODEL        PACKAGE GEO_MODEL       CONNECTED TO MODEL GEO_MODEL        PACKAGE RCH_0            ON UNIT   1019 AT TIME STEP      3, STRESS PERIOD      5
 UBDSV06 SAVING            EVTA  IN MODEL GEO_MODEL        PACKAGE GEO_MODEL       CONNECTED TO MODEL GEO_MODEL        PACKAGE EVTA_0           ON UNIT   1019 AT TIME STEP      3, STRESS PERIOD      5

 HEAD WILL BE SAVED ON UNIT 1020 AT END OF TIME STEP    3, STRESS PERIOD    5

end timestep


start timestep kper="5" kstp="4" mode="normal"

 UBDSV1 SAVING           STO-SS ON UNIT   1019 AT TIME STEP      4, STRESS PERIOD      5
 UBDSV1 SAVING     FLOW-JA-FACE ON UNIT   1019 AT TIME STEP      4, STRESS PERIOD      5
 UBDSV06 SAVING       DATA-SPDIS IN MODEL GEO_MODEL        PACKAGE NPF             CONNECTED TO MODEL GEO_MODEL        PACKAGE NPF              ON UNIT   1019 AT TIME STEP      4, STRESS PERIOD      5
 UBDSV06 SAVING              WEL IN MODEL GEO_MODEL        PACKAGE GEO_MODEL       CONNECTED TO MODEL GEO_MODEL        PACKAGE WEL_0            ON UNIT   1019 AT TIME STEP      4, STRESS PERIOD      5
 UBDSV06 SAVING              RIV IN MODEL GEO_MODEL        PACKAGE GEO_MODEL       CONNECTED TO MODEL GEO_MODEL        PACKAGE RIV_0            ON UNIT   1019 AT TIME STEP      4, STRESS PERIOD      5
 UBDSV06 SAVING              GHB IN MODEL GEO_MODEL        PACKAGE GEO_MODEL       CONNECTED TO MODEL GEO_MODEL        PACKAGE GHB_0            ON UNIT   1019 AT TIME STEP      4, STRESS PERIOD      5
 UBDSV06 SAVING              RCH IN MODEL GEO_MODEL        PACKAGE GEO_MODEL       CONNECTED TO MODEL GEO_MODEL        PACKAGE RCH_0            ON UNIT   1019 AT TIME STEP      4, STRESS PERIOD      5
 UBDSV06 SAVING            EVTA  IN MODEL GEO_MODEL        PACKAGE GEO_MODEL       CONNECTED TO MODEL GEO_MODEL        PACKAGE EVTA_0           ON UNIT   1019 AT TIME STEP      4, STRESS PERIOD      5

 HEAD WILL BE SAVED ON UNIT 1020 AT END OF TIME STEP    4, STRESS PERIOD    5


  VOLUME BUDGET FOR ENTIRE MODEL AT END OF TIME STEP    4, STRESS PERIOD   5
  ---------------------------------------------------------------------------------------------------

     CUMULATIVE VOLUME      L**3       RATES FOR THIS TIME STEP      L**3/T          PACKAGE NAME    
     ------------------                 ------------------------                     ----------------

           IN:                                      IN:
           ---                                      ---
              STO-SS =       97132.3861                STO-SS =       4.0762E-07     STORAGE                          
                 WEL =           0.0000                   WEL =           0.0000     WEL_0                            
                 RIV =    59837114.3802                   RIV =           0.8669     RIV_0                            
                 GHB =   206154073.9782                   GHB =           2.9826     GHB_0                            
                 RCH =     2107744.8389                   RCH =       3.0494E-02     RCH_0                            
                EVTA =           0.0000                  EVTA =           0.0000     EVTA_0                           

            TOTAL IN =   268196065.5833              TOTAL IN =           3.8800

          OUT:                                     OUT:
          ----                                     ----
              STO-SS =        5923.9496                STO-SS =       6.6650E-08     STORAGE                          
                 WEL =    31104000.0000                   WEL =           0.4500     WEL_0                            
                 RIV =    29813175.0313                   RIV =           0.4309     RIV_0                            
                 GHB =   205109931.9718                   GHB =           2.9674     GHB_0                            
                 RCH =           0.0000                   RCH =           0.0000     RCH_0                            
                EVTA =     2206185.3960                  EVTA =       3.1874E-02     EVTA_0                           

           TOTAL OUT =   268239216.3487             TOTAL OUT =           3.8802

            IN - OUT =      -43150.7654              IN - OUT =      -2.2378E-04

 PERCENT DISCREPANCY =          -0.02     PERCENT DISCREPANCY =          -0.01




         TIME SUMMARY AT END OF TIME STEP    4 IN STRESS PERIOD    5
                    SECONDS     MINUTES      HOURS       DAYS        YEARS
                    -----------------------------------------------------------
   TIME STEP LENGTH 4.32000E+06  72000.      1200.0      50.000     0.13689    
 STRESS PERIOD TIME 1.72800E+07 2.88000E+05  4800.0      200.00     0.54757    
         TOTAL TIME 6.91200E+07 1.15200E+06  19200.      800.00      2.1903    


end timestep


start timestep kper="6" kstp="1" mode="normal"


 OUTPUT CONTROL FOR STRESS PERIOD 6 IS REPEATED USING SETTINGS FROM A PREVIOUS STRESS PERIOD.


 STRESS PERIOD 6 IS TRANSIENT

 UBDSV1 SAVING           STO-SS ON UNIT   1019 AT TIME STEP      1, STRESS PERIOD      6
 UBDSV1 SAVING     FLOW-JA-FACE ON UNIT   1019 AT TIME STEP      1, STRESS PERIOD      6
 UBDSV06 SAVING       DATA-SPDIS IN MODEL GEO_MODEL        PACKAGE NPF             CONNECTED TO MODEL GEO_MODEL        PACKAGE NPF              ON UNIT   1019 AT TIME STEP      1, STRESS PERIOD      6
 UBDSV06 SAVING              WEL IN MODEL GEO_MODEL        PACKAGE GEO_MODEL       CONNECTED TO MODEL GEO_MODEL        PACKAGE WEL_0            ON UNIT   1019 AT TIME STEP      1, STRESS PERIOD      6
 UBDSV06 SAVING              RIV IN MODEL GEO_MODEL        PACKAGE GEO_MODEL       CONNECTED TO MODEL GEO_MODEL        PACKAGE RIV_0            ON UNIT   1019 AT TIME STEP      1, STRESS PERIOD      6
 UBDSV06 SAVING              GHB IN MODEL GEO_MODEL        PACKAGE GEO_MODEL       CONNECTED TO MODEL GEO_MODEL        PACKAGE GHB_0            ON UNIT   1019 AT TIME STEP      1, STRESS PERIOD      6
 UBDSV06 SAVING              RCH IN MODEL GEO_MODEL        PACKAGE GEO_MODEL       CONNECTED TO MODEL GEO_MODEL        PACKAGE RCH_0            ON UNIT   1019 AT TIME STEP      1, STRESS PERIOD      6
 UBDSV06 SAVING            EVTA  IN MODEL GEO_MODEL        PACKAGE GEO_MODEL       CONNECTED TO MODEL GEO_MODEL        PACKAGE EVTA_0           ON UNIT   1019 AT TIME STEP      1, STRESS PERIOD      6

 HEAD WILL BE SAVED ON UNIT 1020 AT END OF TIME STEP    1, STRESS PERIOD    6

end timestep


start timestep kper="6" kstp="2" mode="normal"

 UBDSV1 SAVING           STO-SS ON UNIT   1019 AT TIME STEP      2, STRESS PERIOD      6
 UBDSV1 SAVING     FLOW-JA-FACE ON UNIT   1019 AT TIME STEP      2, STRESS PERIOD      6
 UBDSV06 SAVING       DATA-SPDIS IN MODEL GEO_MODEL        PACKAGE NPF             CONNECTED TO MODEL GEO_MODEL        PACKAGE NPF              ON UNIT   1019 AT TIME STEP      2, STRESS PERIOD      6
 UBDSV06 SAVING              WEL IN MODEL GEO_MODEL        PACKAGE GEO_MODEL       CONNECTED TO MODEL GEO_MODEL        PACKAGE WEL_0            ON UNIT   1019 AT TIME STEP      2, STRESS PERIOD      6
 UBDSV06 SAVING              RIV IN MODEL GEO_MODEL        PACKAGE GEO_MODEL       CONNECTED TO MODEL GEO_MODEL        PACKAGE RIV_0            ON UNIT   1019 AT TIME STEP      2, STRESS PERIOD      6
 UBDSV06 SAVING              GHB IN MODEL GEO_MODEL        PACKAGE GEO_MODEL       CONNECTED TO MODEL GEO_MODEL        PACKAGE GHB_0            ON UNIT   1019 AT TIME STEP      2, STRESS PERIOD      6
 UBDSV06 SAVING              RCH IN MODEL GEO_MODEL        PACKAGE GEO_MODEL       CONNECTED TO MODEL GEO_MODEL        PACKAGE RCH_0            ON UNIT   1019 AT TIME STEP      2, STRESS PERIOD      6
 UBDSV06 SAVING            EVTA  IN MODEL GEO_MODEL        PACKAGE GEO_MODEL       CONNECTED TO MODEL GEO_MODEL        PACKAGE EVTA_0           ON UNIT   1019 AT TIME STEP      2, STRESS PERIOD      6

 HEAD WILL BE SAVED ON UNIT 1020 AT END OF TIME STEP    2, STRESS PERIOD    6

end timestep


start timestep kper="6" kstp="3" mode="normal"

 UBDSV1 SAVING           STO-SS ON UNIT   1019 AT TIME STEP      3, STRESS PERIOD      6
 UBDSV1 SAVING     FLOW-JA-FACE ON UNIT   1019 AT TIME STEP      3, STRESS PERIOD      6
 UBDSV06 SAVING       DATA-SPDIS IN MODEL GEO_MODEL        PACKAGE NPF             CONNECTED TO MODEL GEO_MODEL        PACKAGE NPF              ON UNIT   1019 AT TIME STEP      3, STRESS PERIOD      6
 UBDSV06 SAVING              WEL IN MODEL GEO_MODEL        PACKAGE GEO_MODEL       CONNECTED TO MODEL GEO_MODEL        PACKAGE WEL_0            ON UNIT   1019 AT TIME STEP      3, STRESS PERIOD      6
 UBDSV06 SAVING              RIV IN MODEL GEO_MODEL        PACKAGE GEO_MODEL       CONNECTED TO MODEL GEO_MODEL        PACKAGE RIV_0            ON UNIT   1019 AT TIME STEP      3, STRESS PERIOD      6
 UBDSV06 SAVING              GHB IN MODEL GEO_MODEL        PACKAGE GEO_MODEL       CONNECTED TO MODEL GEO_MODEL        PACKAGE GHB_0            ON UNIT   1019 AT TIME STEP      3, STRESS PERIOD      6
 UBDSV06 SAVING              RCH IN MODEL GEO_MODEL        PACKAGE GEO_MODEL       CONNECTED TO MODEL GEO_MODEL        PACKAGE RCH_0            ON UNIT   1019 AT TIME STEP      3, STRESS PERIOD      6
 UBDSV06 SAVING            EVTA  IN MODEL GEO_MODEL        PACKAGE GEO_MODEL       CONNECTED TO MODEL GEO_MODEL        PACKAGE EVTA_0           ON UNIT   1019 AT TIME STEP      3, STRESS PERIOD      6

 HEAD WILL BE SAVED ON UNIT 1020 AT END OF TIME STEP    3, STRESS PERIOD    6

end timestep


start timestep kper="6" kstp="4" mode="normal"

 UBDSV1 SAVING           STO-SS ON UNIT   1019 AT TIME STEP      4, STRESS PERIOD      6
 UBDSV1 SAVING     FLOW-JA-FACE ON UNIT   1019 AT TIME STEP      4, STRESS PERIOD      6
 UBDSV06 SAVING       DATA-SPDIS IN MODEL GEO_MODEL        PACKAGE NPF             CONNECTED TO MODEL GEO_MODEL        PACKAGE NPF              ON UNIT   1019 AT TIME STEP      4, STRESS PERIOD      6
 UBDSV06 SAVING              WEL IN MODEL GEO_MODEL        PACKAGE GEO_MODEL       CONNECTED TO MODEL GEO_MODEL        PACKAGE WEL_0            ON UNIT   1019 AT TIME STEP      4, STRESS PERIOD      6
 UBDSV06 SAVING              RIV IN MODEL GEO_MODEL        PACKAGE GEO_MODEL       CONNECTED TO MODEL GEO_MODEL        PACKAGE RIV_0            ON UNIT   1019 AT TIME STEP      4, STRESS PERIOD      6
 UBDSV06 SAVING              GHB IN MODEL GEO_MODEL        PACKAGE GEO_MODEL       CONNECTED TO MODEL GEO_MODEL        PACKAGE GHB_0            ON UNIT   1019 AT TIME STEP      4, STRESS PERIOD      6
 UBDSV06 SAVING              RCH IN MODEL GEO_MODEL        PACKAGE GEO_MODEL       CONNECTED TO MODEL GEO_MODEL        PACKAGE RCH_0            ON UNIT   1019 AT TIME STEP      4, STRESS PERIOD      6
 UBDSV06 SAVING            EVTA  IN MODEL GEO_MODEL        PACKAGE GEO_MODEL       CONNECTED TO MODEL GEO_MODEL        PACKAGE EVTA_0           ON UNIT   1019 AT TIME STEP      4, STRESS PERIOD      6

 HEAD WILL BE SAVED ON UNIT 1020 AT END OF TIME STEP    4, STRESS PERIOD    6


  VOLUME BUDGET FOR ENTIRE MODEL AT END OF TIME STEP    4, STRESS PERIOD   6
  ---------------------------------------------------------------------------------------------------

     CUMULATIVE VOLUME      L**3       RATES FOR THIS TIME STEP      L**3/T          PACKAGE NAME    
     ------------------                 ------------------------                     ----------------

           IN:                                      IN:
           ---                                      ---
              STO-SS =       97133.9991                STO-SS =       2.5371E-07     STORAGE                          
                 WEL =           0.0000                   WEL =           0.0000     WEL_0                            
                 RIV =    74817305.8174                   RIV =           0.8669     RIV_0                            
                 GHB =   257692782.9572                   GHB =           2.9826     GHB_0                            
                 RCH =     2634681.0410                   RCH =       3.0494E-02     RCH_0                            
                EVTA =           0.0000                  EVTA =           0.0000     EVTA_0                           

            TOTAL IN =   335241903.8148              TOTAL IN =           3.8800

          OUT:                                     OUT:
          ----                                     ----
              STO-SS =        5923.9885                STO-SS =       1.4866E-09     STORAGE                          
                 WEL =    38880000.0000                   WEL =           0.4500     WEL_0                            
                 RIV =    37258657.6439                   RIV =           0.4309     RIV_0                            
                 GHB =   256387222.9928                   GHB =           2.9674     GHB_0                            
                 RCH =           0.0000                   RCH =           0.0000     RCH_0                            
                EVTA =     2756959.7818                  EVTA =       3.1873E-02     EVTA_0                           

           TOTAL OUT =   335288764.4069             TOTAL OUT =           3.8802

            IN - OUT =      -46860.5921              IN - OUT =      -2.0287E-04

 PERCENT DISCREPANCY =          -0.01     PERCENT DISCREPANCY =          -0.01




         TIME SUMMARY AT END OF TIME STEP    4 IN STRESS PERIOD    6
                    SECONDS     MINUTES      HOURS       DAYS        YEARS
                    -----------------------------------------------------------
   TIME STEP LENGTH 4.32000E+06  72000.      1200.0      50.000     0.13689    
 STRESS PERIOD TIME 1.72800E+07 2.88000E+05  4800.0      200.00     0.54757    
         TOTAL TIME 8.64000E+07 1.44000E+06  24000.      1000.0      2.7379    


end timestep


start timestep kper="7" kstp="1" mode="normal"


 OUTPUT CONTROL FOR STRESS PERIOD 7 IS REPEATED USING SETTINGS FROM A PREVIOUS STRESS PERIOD.


 STRESS PERIOD 7 IS TRANSIENT

 UBDSV1 SAVING           STO-SS ON UNIT   1019 AT TIME STEP      1, STRESS PERIOD      7
 UBDSV1 SAVING     FLOW-JA-FACE ON UNIT   1019 AT TIME STEP      1, STRESS PERIOD      7
 UBDSV06 SAVING       DATA-SPDIS IN MODEL GEO_MODEL        PACKAGE NPF             CONNECTED TO MODEL GEO_MODEL        PACKAGE NPF              ON UNIT   1019 AT TIME STEP      1, STRESS PERIOD      7
 UBDSV06 SAVING              WEL IN MODEL GEO_MODEL        PACKAGE GEO_MODEL       CONNECTED TO MODEL GEO_MODEL        PACKAGE WEL_0            ON UNIT   1019 AT TIME STEP      1, STRESS PERIOD      7
 UBDSV06 SAVING              RIV IN MODEL GEO_MODEL        PACKAGE GEO_MODEL       CONNECTED TO MODEL GEO_MODEL        PACKAGE RIV_0            ON UNIT   1019 AT TIME STEP      1, STRESS PERIOD      7
 UBDSV06 SAVING              GHB IN MODEL GEO_MODEL        PACKAGE GEO_MODEL       CONNECTED TO MODEL GEO_MODEL        PACKAGE GHB_0            ON UNIT   1019 AT TIME STEP      1, STRESS PERIOD      7
 UBDSV06 SAVING              RCH IN MODEL GEO_MODEL        PACKAGE GEO_MODEL       CONNECTED TO MODEL GEO_MODEL        PACKAGE RCH_0            ON UNIT   1019 AT TIME STEP      1, STRESS PERIOD      7
 UBDSV06 SAVING            EVTA  IN MODEL GEO_MODEL        PACKAGE GEO_MODEL       CONNECTED TO MODEL GEO_MODEL        PACKAGE EVTA_0           ON UNIT   1019 AT TIME STEP      1, STRESS PERIOD      7

 HEAD WILL BE SAVED ON UNIT 1020 AT END OF TIME STEP    1, STRESS PERIOD    7

end timestep


start timestep kper="7" kstp="2" mode="normal"

 UBDSV1 SAVING           STO-SS ON UNIT   1019 AT TIME STEP      2, STRESS PERIOD      7
 UBDSV1 SAVING     FLOW-JA-FACE ON UNIT   1019 AT TIME STEP      2, STRESS PERIOD      7
 UBDSV06 SAVING       DATA-SPDIS IN MODEL GEO_MODEL        PACKAGE NPF             CONNECTED TO MODEL GEO_MODEL        PACKAGE NPF              ON UNIT   1019 AT TIME STEP      2, STRESS PERIOD      7
 UBDSV06 SAVING              WEL IN MODEL GEO_MODEL        PACKAGE GEO_MODEL       CONNECTED TO MODEL GEO_MODEL        PACKAGE WEL_0            ON UNIT   1019 AT TIME STEP      2, STRESS PERIOD      7
 UBDSV06 SAVING              RIV IN MODEL GEO_MODEL        PACKAGE GEO_MODEL       CONNECTED TO MODEL GEO_MODEL        PACKAGE RIV_0            ON UNIT   1019 AT TIME STEP      2, STRESS PERIOD      7
 UBDSV06 SAVING              GHB IN MODEL GEO_MODEL        PACKAGE GEO_MODEL       CONNECTED TO MODEL GEO_MODEL        PACKAGE GHB_0            ON UNIT   1019 AT TIME STEP      2, STRESS PERIOD      7
 UBDSV06 SAVING              RCH IN MODEL GEO_MODEL        PACKAGE GEO_MODEL       CONNECTED TO MODEL GEO_MODEL        PACKAGE RCH_0            ON UNIT   1019 AT TIME STEP      2, STRESS PERIOD      7
 UBDSV06 SAVING            EVTA  IN MODEL GEO_MODEL        PACKAGE GEO_MODEL       CONNECTED TO MODEL GEO_MODEL        PACKAGE EVTA_0           ON UNIT   1019 AT TIME STEP      2, STRESS PERIOD      7

 HEAD WILL BE SAVED ON UNIT 1020 AT END OF TIME STEP    2, STRESS PERIOD    7

end timestep


start timestep kper="7" kstp="3" mode="normal"

 UBDSV1 SAVING           STO-SS ON UNIT   1019 AT TIME STEP      3, STRESS PERIOD      7
 UBDSV1 SAVING     FLOW-JA-FACE ON UNIT   1019 AT TIME STEP      3, STRESS PERIOD      7
 UBDSV06 SAVING       DATA-SPDIS IN MODEL GEO_MODEL        PACKAGE NPF             CONNECTED TO MODEL GEO_MODEL        PACKAGE NPF              ON UNIT   1019 AT TIME STEP      3, STRESS PERIOD      7
 UBDSV06 SAVING              WEL IN MODEL GEO_MODEL        PACKAGE GEO_MODEL       CONNECTED TO MODEL GEO_MODEL        PACKAGE WEL_0            ON UNIT   1019 AT TIME STEP      3, STRESS PERIOD      7
 UBDSV06 SAVING              RIV IN MODEL GEO_MODEL        PACKAGE GEO_MODEL       CONNECTED TO MODEL GEO_MODEL        PACKAGE RIV_0            ON UNIT   1019 AT TIME STEP      3, STRESS PERIOD      7
 UBDSV06 SAVING              GHB IN MODEL GEO_MODEL        PACKAGE GEO_MODEL       CONNECTED TO MODEL GEO_MODEL        PACKAGE GHB_0            ON UNIT   1019 AT TIME STEP      3, STRESS PERIOD      7
 UBDSV06 SAVING              RCH IN MODEL GEO_MODEL        PACKAGE GEO_MODEL       CONNECTED TO MODEL GEO_MODEL        PACKAGE RCH_0            ON UNIT   1019 AT TIME STEP      3, STRESS PERIOD      7
 UBDSV06 SAVING            EVTA  IN MODEL GEO_MODEL        PACKAGE GEO_MODEL       CONNECTED TO MODEL GEO_MODEL        PACKAGE EVTA_0           ON UNIT   1019 AT TIME STEP      3, STRESS PERIOD      7

 HEAD WILL BE SAVED ON UNIT 1020 AT END OF TIME STEP    3, STRESS PERIOD    7

end timestep


start timestep kper="7" kstp="4" mode="normal"

 UBDSV1 SAVING           STO-SS ON UNIT   1019 AT TIME STEP      4, STRESS PERIOD      7
 UBDSV1 SAVING     FLOW-JA-FACE ON UNIT   1019 AT TIME STEP      4, STRESS PERIOD      7
 UBDSV06 SAVING       DATA-SPDIS IN MODEL GEO_MODEL        PACKAGE NPF             CONNECTED TO MODEL GEO_MODEL        PACKAGE NPF              ON UNIT   1019 AT TIME STEP      4, STRESS PERIOD      7
 UBDSV06 SAVING              WEL IN MODEL GEO_MODEL        PACKAGE GEO_MODEL       CONNECTED TO MODEL GEO_MODEL        PACKAGE WEL_0            ON UNIT   1019 AT TIME STEP      4, STRESS PERIOD      7
 UBDSV06 SAVING              RIV IN MODEL GEO_MODEL        PACKAGE GEO_MODEL       CONNECTED TO MODEL GEO_MODEL        PACKAGE RIV_0            ON UNIT   1019 AT TIME STEP      4, STRESS PERIOD      7
 UBDSV06 SAVING              GHB IN MODEL GEO_MODEL        PACKAGE GEO_MODEL       CONNECTED TO MODEL GEO_MODEL        PACKAGE GHB_0            ON UNIT   1019 AT TIME STEP      4, STRESS PERIOD      7
 UBDSV06 SAVING              RCH IN MODEL GEO_MODEL        PACKAGE GEO_MODEL       CONNECTED TO MODEL GEO_MODEL        PACKAGE RCH_0            ON UNIT   1019 AT TIME STEP      4, STRESS PERIOD      7
 UBDSV06 SAVING            EVTA  IN MODEL GEO_MODEL        PACKAGE GEO_MODEL       CONNECTED TO MODEL GEO_MODEL        PACKAGE EVTA_0           ON UNIT   1019 AT TIME STEP      4, STRESS PERIOD      7

 HEAD WILL BE SAVED ON UNIT 1020 AT END OF TIME STEP    4, STRESS PERIOD    7


  VOLUME BUDGET FOR ENTIRE MODEL AT END OF TIME STEP    4, STRESS PERIOD   7
  ---------------------------------------------------------------------------------------------------

     CUMULATIVE VOLUME      L**3       RATES FOR THIS TIME STEP      L**3/T          PACKAGE NAME    
     ------------------                 ------------------------                     ----------------

           IN:                                      IN:
           ---                                      ---
              STO-SS =       97134.6075                STO-SS =       5.6132E-08     STORAGE                          
                 WEL =           0.0000                   WEL =           0.0000     WEL_0                            
                 RIV =    89797630.1113                   RIV =           0.8669     RIV_0                            
                 GHB =   309231495.1600                   GHB =           2.9826     GHB_0                            
                 RCH =     3161617.2431                   RCH =       3.0494E-02     RCH_0                            
                EVTA =           0.0000                  EVTA =           0.0000     EVTA_0                           

            TOTAL IN =   402287877.1219              TOTAL IN =           3.8800

          OUT:                                     OUT:
          ----                                     ----
              STO-SS =        5924.0665                STO-SS =       2.3303E-09     STORAGE                          
                 WEL =    46656000.0000                   WEL =           0.4500     WEL_0                            
                 RIV =    44704028.0877                   RIV =           0.4309     RIV_0                            
                 GHB =   307664510.7900                   GHB =           2.9674     GHB_0                            
                 RCH =           0.0000                   RCH =           0.0000     RCH_0                            
                EVTA =     3307720.3271                  EVTA =       3.1873E-02     EVTA_0                           

           TOTAL OUT =   402338183.2712             TOTAL OUT =           3.8802

            IN - OUT =      -50306.1493              IN - OUT =      -1.9506E-04

 PERCENT DISCREPANCY =          -0.01     PERCENT DISCREPANCY =          -0.01




         TIME SUMMARY AT END OF TIME STEP    4 IN STRESS PERIOD    7
                    SECONDS     MINUTES      HOURS       DAYS        YEARS
                    -----------------------------------------------------------
   TIME STEP LENGTH 4.32000E+06  72000.      1200.0      50.000     0.13689    
 STRESS PERIOD TIME 1.72800E+07 2.88000E+05  4800.0      200.00     0.54757    
         TOTAL TIME 1.03680E+08 1.72800E+06  28800.      1200.0      3.2854    


end timestep


start timestep kper="8" kstp="1" mode="normal"


 OUTPUT CONTROL FOR STRESS PERIOD 8 IS REPEATED USING SETTINGS FROM A PREVIOUS STRESS PERIOD.


 STRESS PERIOD 8 IS TRANSIENT

 UBDSV1 SAVING           STO-SS ON UNIT   1019 AT TIME STEP      1, STRESS PERIOD      8
 UBDSV1 SAVING     FLOW-JA-FACE ON UNIT   1019 AT TIME STEP      1, STRESS PERIOD      8
 UBDSV06 SAVING       DATA-SPDIS IN MODEL GEO_MODEL        PACKAGE NPF             CONNECTED TO MODEL GEO_MODEL        PACKAGE NPF              ON UNIT   1019 AT TIME STEP      1, STRESS PERIOD      8
 UBDSV06 SAVING              WEL IN MODEL GEO_MODEL        PACKAGE GEO_MODEL       CONNECTED TO MODEL GEO_MODEL        PACKAGE WEL_0            ON UNIT   1019 AT TIME STEP      1, STRESS PERIOD      8
 UBDSV06 SAVING              RIV IN MODEL GEO_MODEL        PACKAGE GEO_MODEL       CONNECTED TO MODEL GEO_MODEL        PACKAGE RIV_0            ON UNIT   1019 AT TIME STEP      1, STRESS PERIOD      8
 UBDSV06 SAVING              GHB IN MODEL GEO_MODEL        PACKAGE GEO_MODEL       CONNECTED TO MODEL GEO_MODEL        PACKAGE GHB_0            ON UNIT   1019 AT TIME STEP      1, STRESS PERIOD      8
 UBDSV06 SAVING              RCH IN MODEL GEO_MODEL        PACKAGE GEO_MODEL       CONNECTED TO MODEL GEO_MODEL        PACKAGE RCH_0            ON UNIT   1019 AT TIME STEP      1, STRESS PERIOD      8
 UBDSV06 SAVING            EVTA  IN MODEL GEO_MODEL        PACKAGE GEO_MODEL       CONNECTED TO MODEL GEO_MODEL        PACKAGE EVTA_0           ON UNIT   1019 AT TIME STEP      1, STRESS PERIOD      8

 HEAD WILL BE SAVED ON UNIT 1020 AT END OF TIME STEP    1, STRESS PERIOD    8

end timestep


start timestep kper="8" kstp="2" mode="normal"

 UBDSV1 SAVING           STO-SS ON UNIT   1019 AT TIME STEP      2, STRESS PERIOD      8
 UBDSV1 SAVING     FLOW-JA-FACE ON UNIT   1019 AT TIME STEP      2, STRESS PERIOD      8
 UBDSV06 SAVING       DATA-SPDIS IN MODEL GEO_MODEL        PACKAGE NPF             CONNECTED TO MODEL GEO_MODEL        PACKAGE NPF              ON UNIT   1019 AT TIME STEP      2, STRESS PERIOD      8
 UBDSV06 SAVING              WEL IN MODEL GEO_MODEL        PACKAGE GEO_MODEL       CONNECTED TO MODEL GEO_MODEL        PACKAGE WEL_0            ON UNIT   1019 AT TIME STEP      2, STRESS PERIOD      8
 UBDSV06 SAVING              RIV IN MODEL GEO_MODEL        PACKAGE GEO_MODEL       CONNECTED TO MODEL GEO_MODEL        PACKAGE RIV_0            ON UNIT   1019 AT TIME STEP      2, STRESS PERIOD      8
 UBDSV06 SAVING              GHB IN MODEL GEO_MODEL        PACKAGE GEO_MODEL       CONNECTED TO MODEL GEO_MODEL        PACKAGE GHB_0            ON UNIT   1019 AT TIME STEP      2, STRESS PERIOD      8
 UBDSV06 SAVING              RCH IN MODEL GEO_MODEL        PACKAGE GEO_MODEL       CONNECTED TO MODEL GEO_MODEL        PACKAGE RCH_0            ON UNIT   1019 AT TIME STEP      2, STRESS PERIOD      8
 UBDSV06 SAVING            EVTA  IN MODEL GEO_MODEL        PACKAGE GEO_MODEL       CONNECTED TO MODEL GEO_MODEL        PACKAGE EVTA_0           ON UNIT   1019 AT TIME STEP      2, STRESS PERIOD      8

 HEAD WILL BE SAVED ON UNIT 1020 AT END OF TIME STEP    2, STRESS PERIOD    8

end timestep


start timestep kper="8" kstp="3" mode="normal"

 UBDSV1 SAVING           STO-SS ON UNIT   1019 AT TIME STEP      3, STRESS PERIOD      8
 UBDSV1 SAVING     FLOW-JA-FACE ON UNIT   1019 AT TIME STEP      3, STRESS PERIOD      8
 UBDSV06 SAVING       DATA-SPDIS IN MODEL GEO_MODEL        PACKAGE NPF             CONNECTED TO MODEL GEO_MODEL        PACKAGE NPF              ON UNIT   1019 AT TIME STEP      3, STRESS PERIOD      8
 UBDSV06 SAVING              WEL IN MODEL GEO_MODEL        PACKAGE GEO_MODEL       CONNECTED TO MODEL GEO_MODEL        PACKAGE WEL_0            ON UNIT   1019 AT TIME STEP      3, STRESS PERIOD      8
 UBDSV06 SAVING              RIV IN MODEL GEO_MODEL        PACKAGE GEO_MODEL       CONNECTED TO MODEL GEO_MODEL        PACKAGE RIV_0            ON UNIT   1019 AT TIME STEP      3, STRESS PERIOD      8
 UBDSV06 SAVING              GHB IN MODEL GEO_MODEL        PACKAGE GEO_MODEL       CONNECTED TO MODEL GEO_MODEL        PACKAGE GHB_0            ON UNIT   1019 AT TIME STEP      3, STRESS PERIOD      8
 UBDSV06 SAVING              RCH IN MODEL GEO_MODEL        PACKAGE GEO_MODEL       CONNECTED TO MODEL GEO_MODEL        PACKAGE RCH_0            ON UNIT   1019 AT TIME STEP      3, STRESS PERIOD      8
 UBDSV06 SAVING            EVTA  IN MODEL GEO_MODEL        PACKAGE GEO_MODEL       CONNECTED TO MODEL GEO_MODEL        PACKAGE EVTA_0           ON UNIT   1019 AT TIME STEP      3, STRESS PERIOD      8

 HEAD WILL BE SAVED ON UNIT 1020 AT END OF TIME STEP    3, STRESS PERIOD    8

end timestep


start timestep kper="8" kstp="4" mode="normal"

 UBDSV1 SAVING           STO-SS ON UNIT   1019 AT TIME STEP      4, STRESS PERIOD      8
 UBDSV1 SAVING     FLOW-JA-FACE ON UNIT   1019 AT TIME STEP      4, STRESS PERIOD      8
 UBDSV06 SAVING       DATA-SPDIS IN MODEL GEO_MODEL        PACKAGE NPF             CONNECTED TO MODEL GEO_MODEL        PACKAGE NPF              ON UNIT   1019 AT TIME STEP      4, STRESS PERIOD      8
 UBDSV06 SAVING              WEL IN MODEL GEO_MODEL        PACKAGE GEO_MODEL       CONNECTED TO MODEL GEO_MODEL        PACKAGE WEL_0            ON UNIT   1019 AT TIME STEP      4, STRESS PERIOD      8
 UBDSV06 SAVING              RIV IN MODEL GEO_MODEL        PACKAGE GEO_MODEL       CONNECTED TO MODEL GEO_MODEL        PACKAGE RIV_0            ON UNIT   1019 AT TIME STEP      4, STRESS PERIOD      8
 UBDSV06 SAVING              GHB IN MODEL GEO_MODEL        PACKAGE GEO_MODEL       CONNECTED TO MODEL GEO_MODEL        PACKAGE GHB_0            ON UNIT   1019 AT TIME STEP      4, STRESS PERIOD      8
 UBDSV06 SAVING              RCH IN MODEL GEO_MODEL        PACKAGE GEO_MODEL       CONNECTED TO MODEL GEO_MODEL        PACKAGE RCH_0            ON UNIT   1019 AT TIME STEP      4, STRESS PERIOD      8
 UBDSV06 SAVING            EVTA  IN MODEL GEO_MODEL        PACKAGE GEO_MODEL       CONNECTED TO MODEL GEO_MODEL        PACKAGE EVTA_0           ON UNIT   1019 AT TIME STEP      4, STRESS PERIOD      8

 HEAD WILL BE SAVED ON UNIT 1020 AT END OF TIME STEP    4, STRESS PERIOD    8


  VOLUME BUDGET FOR ENTIRE MODEL AT END OF TIME STEP    4, STRESS PERIOD   8
  ---------------------------------------------------------------------------------------------------

     CUMULATIVE VOLUME      L**3       RATES FOR THIS TIME STEP      L**3/T          PACKAGE NAME    
     ------------------                 ------------------------                     ----------------

           IN:                                      IN:
           ---                                      ---
              STO-SS =       97136.1644                STO-SS =       2.5972E-08     STORAGE                          
                 WEL =           0.0000                   WEL =           0.0000     WEL_0                            
                 RIV =   104778137.6249                   RIV =           0.8669     RIV_0                            
                 GHB =   360770211.2053                   GHB =           2.9826     GHB_0                            
                 RCH =     3688553.4452                   RCH =       3.0494E-02     RCH_0                            
                EVTA =           0.0000                  EVTA =           0.0000     EVTA_0                           

            TOTAL IN =   469334038.4398              TOTAL IN =           3.8800

          OUT:                                     OUT:
          ----                                     ----
              STO-SS =        5924.0914                STO-SS =       7.7736E-10     STORAGE                          
                 WEL =    54432000.0000                   WEL =           0.4500     WEL_0                            
                 RIV =    52149250.6708                   RIV =           0.4309     RIV_0                            
                 GHB =   358941794.7447                   GHB =           2.9674     GHB_0                            
                 RCH =           0.0000                   RCH =           0.0000     RCH_0                            
                EVTA =     3858465.4158                  EVTA =       3.1872E-02     EVTA_0                           

           TOTAL OUT =   469387434.9228             TOTAL OUT =           3.8802

            IN - OUT =      -53396.4830              IN - OUT =      -1.7300E-04

 PERCENT DISCREPANCY =          -0.01     PERCENT DISCREPANCY =          -0.00




         TIME SUMMARY AT END OF TIME STEP    4 IN STRESS PERIOD    8
                    SECONDS     MINUTES      HOURS       DAYS        YEARS
                    -----------------------------------------------------------
   TIME STEP LENGTH 4.32000E+06  72000.      1200.0      50.000     0.13689    
 STRESS PERIOD TIME 1.72800E+07 2.88000E+05  4800.0      200.00     0.54757    
         TOTAL TIME 1.20960E+08 2.01600E+06  33600.      1400.0      3.8330    


end timestep


start timestep kper="9" kstp="1" mode="normal"


 OUTPUT CONTROL FOR STRESS PERIOD 9 IS REPEATED USING SETTINGS FROM A PREVIOUS STRESS PERIOD.


 STRESS PERIOD 9 IS TRANSIENT

 UBDSV1 SAVING           STO-SS ON UNIT   1019 AT TIME STEP      1, STRESS PERIOD      9
 UBDSV1 SAVING     FLOW-JA-FACE ON UNIT   1019 AT TIME STEP      1, STRESS PERIOD      9
 UBDSV06 SAVING       DATA-SPDIS IN MODEL GEO_MODEL        PACKAGE NPF             CONNECTED TO MODEL GEO_MODEL        PACKAGE NPF              ON UNIT   1019 AT TIME STEP      1, STRESS PERIOD      9
 UBDSV06 SAVING              WEL IN MODEL GEO_MODEL        PACKAGE GEO_MODEL       CONNECTED TO MODEL GEO_MODEL        PACKAGE WEL_0            ON UNIT   1019 AT TIME STEP      1, STRESS PERIOD      9
 UBDSV06 SAVING              RIV IN MODEL GEO_MODEL        PACKAGE GEO_MODEL       CONNECTED TO MODEL GEO_MODEL        PACKAGE RIV_0            ON UNIT   1019 AT TIME STEP      1, STRESS PERIOD      9
 UBDSV06 SAVING              GHB IN MODEL GEO_MODEL        PACKAGE GEO_MODEL       CONNECTED TO MODEL GEO_MODEL        PACKAGE GHB_0            ON UNIT   1019 AT TIME STEP      1, STRESS PERIOD      9
 UBDSV06 SAVING              RCH IN MODEL GEO_MODEL        PACKAGE GEO_MODEL       CONNECTED TO MODEL GEO_MODEL        PACKAGE RCH_0            ON UNIT   1019 AT TIME STEP      1, STRESS PERIOD      9
 UBDSV06 SAVING            EVTA  IN MODEL GEO_MODEL        PACKAGE GEO_MODEL       CONNECTED TO MODEL GEO_MODEL        PACKAGE EVTA_0           ON UNIT   1019 AT TIME STEP      1, STRESS PERIOD      9

 HEAD WILL BE SAVED ON UNIT 1020 AT END OF TIME STEP    1, STRESS PERIOD    9

end timestep


start timestep kper="9" kstp="2" mode="normal"

 UBDSV1 SAVING           STO-SS ON UNIT   1019 AT TIME STEP      2, STRESS PERIOD      9
 UBDSV1 SAVING     FLOW-JA-FACE ON UNIT   1019 AT TIME STEP      2, STRESS PERIOD      9
 UBDSV06 SAVING       DATA-SPDIS IN MODEL GEO_MODEL        PACKAGE NPF             CONNECTED TO MODEL GEO_MODEL        PACKAGE NPF              ON UNIT   1019 AT TIME STEP      2, STRESS PERIOD      9
 UBDSV06 SAVING              WEL IN MODEL GEO_MODEL        PACKAGE GEO_MODEL       CONNECTED TO MODEL GEO_MODEL        PACKAGE WEL_0            ON UNIT   1019 AT TIME STEP      2, STRESS PERIOD      9
 UBDSV06 SAVING              RIV IN MODEL GEO_MODEL        PACKAGE GEO_MODEL       CONNECTED TO MODEL GEO_MODEL        PACKAGE RIV_0            ON UNIT   1019 AT TIME STEP      2, STRESS PERIOD      9
 UBDSV06 SAVING              GHB IN MODEL GEO_MODEL        PACKAGE GEO_MODEL       CONNECTED TO MODEL GEO_MODEL        PACKAGE GHB_0            ON UNIT   1019 AT TIME STEP      2, STRESS PERIOD      9
 UBDSV06 SAVING              RCH IN MODEL GEO_MODEL        PACKAGE GEO_MODEL       CONNECTED TO MODEL GEO_MODEL        PACKAGE RCH_0            ON UNIT   1019 AT TIME STEP      2, STRESS PERIOD      9
 UBDSV06 SAVING            EVTA  IN MODEL GEO_MODEL        PACKAGE GEO_MODEL       CONNECTED TO MODEL GEO_MODEL        PACKAGE EVTA_0           ON UNIT   1019 AT TIME STEP      2, STRESS PERIOD      9

 HEAD WILL BE SAVED ON UNIT 1020 AT END OF TIME STEP    2, STRESS PERIOD    9

end timestep


start timestep kper="9" kstp="3" mode="normal"

 UBDSV1 SAVING           STO-SS ON UNIT   1019 AT TIME STEP      3, STRESS PERIOD      9
 UBDSV1 SAVING     FLOW-JA-FACE ON UNIT   1019 AT TIME STEP      3, STRESS PERIOD      9
 UBDSV06 SAVING       DATA-SPDIS IN MODEL GEO_MODEL        PACKAGE NPF             CONNECTED TO MODEL GEO_MODEL        PACKAGE NPF              ON UNIT   1019 AT TIME STEP      3, STRESS PERIOD      9
 UBDSV06 SAVING              WEL IN MODEL GEO_MODEL        PACKAGE GEO_MODEL       CONNECTED TO MODEL GEO_MODEL        PACKAGE WEL_0            ON UNIT   1019 AT TIME STEP      3, STRESS PERIOD      9
 UBDSV06 SAVING              RIV IN MODEL GEO_MODEL        PACKAGE GEO_MODEL       CONNECTED TO MODEL GEO_MODEL        PACKAGE RIV_0            ON UNIT   1019 AT TIME STEP      3, STRESS PERIOD      9
 UBDSV06 SAVING              GHB IN MODEL GEO_MODEL        PACKAGE GEO_MODEL       CONNECTED TO MODEL GEO_MODEL        PACKAGE GHB_0            ON UNIT   1019 AT TIME STEP      3, STRESS PERIOD      9
 UBDSV06 SAVING              RCH IN MODEL GEO_MODEL        PACKAGE GEO_MODEL       CONNECTED TO MODEL GEO_MODEL        PACKAGE RCH_0            ON UNIT   1019 AT TIME STEP      3, STRESS PERIOD      9
 UBDSV06 SAVING            EVTA  IN MODEL GEO_MODEL        PACKAGE GEO_MODEL       CONNECTED TO MODEL GEO_MODEL        PACKAGE EVTA_0           ON UNIT   1019 AT TIME STEP      3, STRESS PERIOD      9

 HEAD WILL BE SAVED ON UNIT 1020 AT END OF TIME STEP    3, STRESS PERIOD    9

end timestep


start timestep kper="9" kstp="4" mode="normal"

 UBDSV1 SAVING           STO-SS ON UNIT   1019 AT TIME STEP      4, STRESS PERIOD      9
 UBDSV1 SAVING     FLOW-JA-FACE ON UNIT   1019 AT TIME STEP      4, STRESS PERIOD      9
 UBDSV06 SAVING       DATA-SPDIS IN MODEL GEO_MODEL        PACKAGE NPF             CONNECTED TO MODEL GEO_MODEL        PACKAGE NPF              ON UNIT   1019 AT TIME STEP      4, STRESS PERIOD      9
 UBDSV06 SAVING              WEL IN MODEL GEO_MODEL        PACKAGE GEO_MODEL       CONNECTED TO MODEL GEO_MODEL        PACKAGE WEL_0            ON UNIT   1019 AT TIME STEP      4, STRESS PERIOD      9
 UBDSV06 SAVING              RIV IN MODEL GEO_MODEL        PACKAGE GEO_MODEL       CONNECTED TO MODEL GEO_MODEL        PACKAGE RIV_0            ON UNIT   1019 AT TIME STEP      4, STRESS PERIOD      9
 UBDSV06 SAVING              GHB IN MODEL GEO_MODEL        PACKAGE GEO_MODEL       CONNECTED TO MODEL GEO_MODEL        PACKAGE GHB_0            ON UNIT   1019 AT TIME STEP      4, STRESS PERIOD      9
 UBDSV06 SAVING              RCH IN MODEL GEO_MODEL        PACKAGE GEO_MODEL       CONNECTED TO MODEL GEO_MODEL        PACKAGE RCH_0            ON UNIT   1019 AT TIME STEP      4, STRESS PERIOD      9
 UBDSV06 SAVING            EVTA  IN MODEL GEO_MODEL        PACKAGE GEO_MODEL       CONNECTED TO MODEL GEO_MODEL        PACKAGE EVTA_0           ON UNIT   1019 AT TIME STEP      4, STRESS PERIOD      9

 HEAD WILL BE SAVED ON UNIT 1020 AT END OF TIME STEP    4, STRESS PERIOD    9


  VOLUME BUDGET FOR ENTIRE MODEL AT END OF TIME STEP    4, STRESS PERIOD   9
  ---------------------------------------------------------------------------------------------------

     CUMULATIVE VOLUME      L**3       RATES FOR THIS TIME STEP      L**3/T          PACKAGE NAME    
     ------------------                 ------------------------                     ----------------

           IN:                                      IN:
           ---                                      ---
              STO-SS =       97136.6140                STO-SS =       3.5823E-08     STORAGE                          
                 WEL =           0.0000                   WEL =           0.0000     WEL_0                            
                 RIV =   119758731.7823                   RIV =           0.8669     RIV_0                            
                 GHB =   412308929.2906                   GHB =           2.9826     GHB_0                            
                 RCH =     4215489.6473                   RCH =       3.0494E-02     RCH_0                            
                EVTA =           0.0000                  EVTA =           0.0000     EVTA_0                           

            TOTAL IN =   536380287.3342              TOTAL IN =           3.8800

          OUT:                                     OUT:
          ----                                     ----
              STO-SS =        5924.0935                STO-SS =       2.4713E-11     STORAGE                          
                 WEL =    62208000.0000                   WEL =           0.4500     WEL_0                            
                 RIV =    59594401.5435                   RIV =           0.4309     RIV_0                            
                 GHB =   410219076.6594                   GHB =           2.9674     GHB_0                            
                 RCH =           0.0000                   RCH =           0.0000     RCH_0                            
                EVTA =     4409203.1973                  EVTA =       3.1871E-02     EVTA_0                           

           TOTAL OUT =   536436605.4938             TOTAL OUT =           3.8802

            IN - OUT =      -56318.1596              IN - OUT =      -1.6673E-04

 PERCENT DISCREPANCY =          -0.01     PERCENT DISCREPANCY =          -0.00




         TIME SUMMARY AT END OF TIME STEP    4 IN STRESS PERIOD    9
                    SECONDS     MINUTES      HOURS       DAYS        YEARS
                    -----------------------------------------------------------
   TIME STEP LENGTH 4.32000E+06  72000.      1200.0      50.000     0.13689    
 STRESS PERIOD TIME 1.72800E+07 2.88000E+05  4800.0      200.00     0.54757    
         TOTAL TIME 1.38240E+08 2.30400E+06  38400.      1600.0      4.3806    


end timestep


start timestep kper="10" kstp="1" mode="normal"


 OUTPUT CONTROL FOR STRESS PERIOD 10 IS REPEATED USING SETTINGS FROM A PREVIOUS STRESS PERIOD.


 STRESS PERIOD 10 IS TRANSIENT

 UBDSV1 SAVING           STO-SS ON UNIT   1019 AT TIME STEP      1, STRESS PERIOD     10
 UBDSV1 SAVING     FLOW-JA-FACE ON UNIT   1019 AT TIME STEP      1, STRESS PERIOD     10
 UBDSV06 SAVING       DATA-SPDIS IN MODEL GEO_MODEL        PACKAGE NPF             CONNECTED TO MODEL GEO_MODEL        PACKAGE NPF              ON UNIT   1019 AT TIME STEP      1, STRESS PERIOD     10
 UBDSV06 SAVING              WEL IN MODEL GEO_MODEL        PACKAGE GEO_MODEL       CONNECTED TO MODEL GEO_MODEL        PACKAGE WEL_0            ON UNIT   1019 AT TIME STEP      1, STRESS PERIOD     10
 UBDSV06 SAVING              RIV IN MODEL GEO_MODEL        PACKAGE GEO_MODEL       CONNECTED TO MODEL GEO_MODEL        PACKAGE RIV_0            ON UNIT   1019 AT TIME STEP      1, STRESS PERIOD     10
 UBDSV06 SAVING              GHB IN MODEL GEO_MODEL        PACKAGE GEO_MODEL       CONNECTED TO MODEL GEO_MODEL        PACKAGE GHB_0            ON UNIT   1019 AT TIME STEP      1, STRESS PERIOD     10
 UBDSV06 SAVING              RCH IN MODEL GEO_MODEL        PACKAGE GEO_MODEL       CONNECTED TO MODEL GEO_MODEL        PACKAGE RCH_0            ON UNIT   1019 AT TIME STEP      1, STRESS PERIOD     10
 UBDSV06 SAVING            EVTA  IN MODEL GEO_MODEL        PACKAGE GEO_MODEL       CONNECTED TO MODEL GEO_MODEL        PACKAGE EVTA_0           ON UNIT   1019 AT TIME STEP      1, STRESS PERIOD     10

 HEAD WILL BE SAVED ON UNIT 1020 AT END OF TIME STEP    1, STRESS PERIOD   10

end timestep


start timestep kper="10" kstp="2" mode="normal"

 UBDSV1 SAVING           STO-SS ON UNIT   1019 AT TIME STEP      2, STRESS PERIOD     10
 UBDSV1 SAVING     FLOW-JA-FACE ON UNIT   1019 AT TIME STEP      2, STRESS PERIOD     10
 UBDSV06 SAVING       DATA-SPDIS IN MODEL GEO_MODEL        PACKAGE NPF             CONNECTED TO MODEL GEO_MODEL        PACKAGE NPF              ON UNIT   1019 AT TIME STEP      2, STRESS PERIOD     10
 UBDSV06 SAVING              WEL IN MODEL GEO_MODEL        PACKAGE GEO_MODEL       CONNECTED TO MODEL GEO_MODEL        PACKAGE WEL_0            ON UNIT   1019 AT TIME STEP      2, STRESS PERIOD     10
 UBDSV06 SAVING              RIV IN MODEL GEO_MODEL        PACKAGE GEO_MODEL       CONNECTED TO MODEL GEO_MODEL        PACKAGE RIV_0            ON UNIT   1019 AT TIME STEP      2, STRESS PERIOD     10
 UBDSV06 SAVING              GHB IN MODEL GEO_MODEL        PACKAGE GEO_MODEL       CONNECTED TO MODEL GEO_MODEL        PACKAGE GHB_0            ON UNIT   1019 AT TIME STEP      2, STRESS PERIOD     10
 UBDSV06 SAVING              RCH IN MODEL GEO_MODEL        PACKAGE GEO_MODEL       CONNECTED TO MODEL GEO_MODEL        PACKAGE RCH_0            ON UNIT   1019 AT TIME STEP      2, STRESS PERIOD     10
 UBDSV06 SAVING            EVTA  IN MODEL GEO_MODEL        PACKAGE GEO_MODEL       CONNECTED TO MODEL GEO_MODEL        PACKAGE EVTA_0           ON UNIT   1019 AT TIME STEP      2, STRESS PERIOD     10

 HEAD WILL BE SAVED ON UNIT 1020 AT END OF TIME STEP    2, STRESS PERIOD   10

end timestep


start timestep kper="10" kstp="3" mode="normal"

 UBDSV1 SAVING           STO-SS ON UNIT   1019 AT TIME STEP      3, STRESS PERIOD     10
 UBDSV1 SAVING     FLOW-JA-FACE ON UNIT   1019 AT TIME STEP      3, STRESS PERIOD     10
 UBDSV06 SAVING       DATA-SPDIS IN MODEL GEO_MODEL        PACKAGE NPF             CONNECTED TO MODEL GEO_MODEL        PACKAGE NPF              ON UNIT   1019 AT TIME STEP      3, STRESS PERIOD     10
 UBDSV06 SAVING              WEL IN MODEL GEO_MODEL        PACKAGE GEO_MODEL       CONNECTED TO MODEL GEO_MODEL        PACKAGE WEL_0            ON UNIT   1019 AT TIME STEP      3, STRESS PERIOD     10
 UBDSV06 SAVING              RIV IN MODEL GEO_MODEL        PACKAGE GEO_MODEL       CONNECTED TO MODEL GEO_MODEL        PACKAGE RIV_0            ON UNIT   1019 AT TIME STEP      3, STRESS PERIOD     10
 UBDSV06 SAVING              GHB IN MODEL GEO_MODEL        PACKAGE GEO_MODEL       CONNECTED TO MODEL GEO_MODEL        PACKAGE GHB_0            ON UNIT   1019 AT TIME STEP      3, STRESS PERIOD     10
 UBDSV06 SAVING              RCH IN MODEL GEO_MODEL        PACKAGE GEO_MODEL       CONNECTED TO MODEL GEO_MODEL        PACKAGE RCH_0            ON UNIT   1019 AT TIME STEP      3, STRESS PERIOD     10
 UBDSV06 SAVING            EVTA  IN MODEL GEO_MODEL        PACKAGE GEO_MODEL       CONNECTED TO MODEL GEO_MODEL        PACKAGE EVTA_0           ON UNIT   1019 AT TIME STEP      3, STRESS PERIOD     10

 HEAD WILL BE SAVED ON UNIT 1020 AT END OF TIME STEP    3, STRESS PERIOD   10

end timestep


start timestep kper="10" kstp="4" mode="normal"

 UBDSV1 SAVING           STO-SS ON UNIT   1019 AT TIME STEP      4, STRESS PERIOD     10
 UBDSV1 SAVING     FLOW-JA-FACE ON UNIT   1019 AT TIME STEP      4, STRESS PERIOD     10
 UBDSV06 SAVING       DATA-SPDIS IN MODEL GEO_MODEL        PACKAGE NPF             CONNECTED TO MODEL GEO_MODEL        PACKAGE NPF              ON UNIT   1019 AT TIME STEP      4, STRESS PERIOD     10
 UBDSV06 SAVING              WEL IN MODEL GEO_MODEL        PACKAGE GEO_MODEL       CONNECTED TO MODEL GEO_MODEL        PACKAGE WEL_0            ON UNIT   1019 AT TIME STEP      4, STRESS PERIOD     10
 UBDSV06 SAVING              RIV IN MODEL GEO_MODEL        PACKAGE GEO_MODEL       CONNECTED TO MODEL GEO_MODEL        PACKAGE RIV_0            ON UNIT   1019 AT TIME STEP      4, STRESS PERIOD     10
 UBDSV06 SAVING              GHB IN MODEL GEO_MODEL        PACKAGE GEO_MODEL       CONNECTED TO MODEL GEO_MODEL        PACKAGE GHB_0            ON UNIT   1019 AT TIME STEP      4, STRESS PERIOD     10
 UBDSV06 SAVING              RCH IN MODEL GEO_MODEL        PACKAGE GEO_MODEL       CONNECTED TO MODEL GEO_MODEL        PACKAGE RCH_0            ON UNIT   1019 AT TIME STEP      4, STRESS PERIOD     10
 UBDSV06 SAVING            EVTA  IN MODEL GEO_MODEL        PACKAGE GEO_MODEL       CONNECTED TO MODEL GEO_MODEL        PACKAGE EVTA_0           ON UNIT   1019 AT TIME STEP      4, STRESS PERIOD     10

 HEAD WILL BE SAVED ON UNIT 1020 AT END OF TIME STEP    4, STRESS PERIOD   10


  VOLUME BUDGET FOR ENTIRE MODEL AT END OF TIME STEP    4, STRESS PERIOD  10
  ---------------------------------------------------------------------------------------------------

     CUMULATIVE VOLUME      L**3       RATES FOR THIS TIME STEP      L**3/T          PACKAGE NAME    
     ------------------                 ------------------------                     ----------------

           IN:                                      IN:
           ---                                      ---
              STO-SS =       97137.5955                STO-SS =       9.6128E-08     STORAGE                          
                 WEL =           0.0000                   WEL =           0.0000     WEL_0                            
                 RIV =   134739423.3260                   RIV =           0.8669     RIV_0                            
                 GHB =   463847649.2939                   GHB =           2.9826     GHB_0                            
                 RCH =     4742425.8494                   RCH =       3.0494E-02     RCH_0                            
                EVTA =           0.0000                  EVTA =           0.0000     EVTA_0                           

            TOTAL IN =   603426636.0648              TOTAL IN =           3.8800

          OUT:                                     OUT:
          ----                                     ----
              STO-SS =        5924.0951                STO-SS =           0.0000     STORAGE                          
                 WEL =    69984000.0000                   WEL =           0.4500     WEL_0                            
                 RIV =    67039478.0486                   RIV =           0.4308     RIV_0                            
                 GHB =   461496356.6561                   GHB =           2.9674     GHB_0                            
                 RCH =           0.0000                   RCH =           0.0000     RCH_0                            
                EVTA =     4959933.9079                  EVTA =       3.1871E-02     EVTA_0                           

           TOTAL OUT =   603485692.7077             TOTAL OUT =           3.8802

            IN - OUT =      -59056.6430              IN - OUT =      -1.5158E-04

 PERCENT DISCREPANCY =          -0.01     PERCENT DISCREPANCY =          -0.00




         TIME SUMMARY AT END OF TIME STEP    4 IN STRESS PERIOD   10
                    SECONDS     MINUTES      HOURS       DAYS        YEARS
                    -----------------------------------------------------------
   TIME STEP LENGTH 4.32000E+06  72000.      1200.0      50.000     0.13689    
 STRESS PERIOD TIME 1.72800E+07 2.88000E+05  4800.0      200.00     0.54757    
         TOTAL TIME 1.55520E+08 2.59200E+06  43200.      1800.0      4.9281    


end timestep


start timestep kper="11" kstp="1" mode="normal"


 OUTPUT CONTROL FOR STRESS PERIOD 11 IS REPEATED USING SETTINGS FROM A PREVIOUS STRESS PERIOD.


 STRESS PERIOD 11 IS TRANSIENT

 UBDSV1 SAVING           STO-SS ON UNIT   1019 AT TIME STEP      1, STRESS PERIOD     11
 UBDSV1 SAVING     FLOW-JA-FACE ON UNIT   1019 AT TIME STEP      1, STRESS PERIOD     11
 UBDSV06 SAVING       DATA-SPDIS IN MODEL GEO_MODEL        PACKAGE NPF             CONNECTED TO MODEL GEO_MODEL        PACKAGE NPF              ON UNIT   1019 AT TIME STEP      1, STRESS PERIOD     11
 UBDSV06 SAVING              WEL IN MODEL GEO_MODEL        PACKAGE GEO_MODEL       CONNECTED TO MODEL GEO_MODEL        PACKAGE WEL_0            ON UNIT   1019 AT TIME STEP      1, STRESS PERIOD     11
 UBDSV06 SAVING              RIV IN MODEL GEO_MODEL        PACKAGE GEO_MODEL       CONNECTED TO MODEL GEO_MODEL        PACKAGE RIV_0            ON UNIT   1019 AT TIME STEP      1, STRESS PERIOD     11
 UBDSV06 SAVING              GHB IN MODEL GEO_MODEL        PACKAGE GEO_MODEL       CONNECTED TO MODEL GEO_MODEL        PACKAGE GHB_0            ON UNIT   1019 AT TIME STEP      1, STRESS PERIOD     11
 UBDSV06 SAVING              RCH IN MODEL GEO_MODEL        PACKAGE GEO_MODEL       CONNECTED TO MODEL GEO_MODEL        PACKAGE RCH_0            ON UNIT   1019 AT TIME STEP      1, STRESS PERIOD     11
 UBDSV06 SAVING            EVTA  IN MODEL GEO_MODEL        PACKAGE GEO_MODEL       CONNECTED TO MODEL GEO_MODEL        PACKAGE EVTA_0           ON UNIT   1019 AT TIME STEP      1, STRESS PERIOD     11

 HEAD WILL BE SAVED ON UNIT 1020 AT END OF TIME STEP    1, STRESS PERIOD   11

end timestep


start timestep kper="11" kstp="2" mode="normal"

 UBDSV1 SAVING           STO-SS ON UNIT   1019 AT TIME STEP      2, STRESS PERIOD     11
 UBDSV1 SAVING     FLOW-JA-FACE ON UNIT   1019 AT TIME STEP      2, STRESS PERIOD     11
 UBDSV06 SAVING       DATA-SPDIS IN MODEL GEO_MODEL        PACKAGE NPF             CONNECTED TO MODEL GEO_MODEL        PACKAGE NPF              ON UNIT   1019 AT TIME STEP      2, STRESS PERIOD     11
 UBDSV06 SAVING              WEL IN MODEL GEO_MODEL        PACKAGE GEO_MODEL       CONNECTED TO MODEL GEO_MODEL        PACKAGE WEL_0            ON UNIT   1019 AT TIME STEP      2, STRESS PERIOD     11
 UBDSV06 SAVING              RIV IN MODEL GEO_MODEL        PACKAGE GEO_MODEL       CONNECTED TO MODEL GEO_MODEL        PACKAGE RIV_0            ON UNIT   1019 AT TIME STEP      2, STRESS PERIOD     11
 UBDSV06 SAVING              GHB IN MODEL GEO_MODEL        PACKAGE GEO_MODEL       CONNECTED TO MODEL GEO_MODEL        PACKAGE GHB_0            ON UNIT   1019 AT TIME STEP      2, STRESS PERIOD     11
 UBDSV06 SAVING              RCH IN MODEL GEO_MODEL        PACKAGE GEO_MODEL       CONNECTED TO MODEL GEO_MODEL        PACKAGE RCH_0            ON UNIT   1019 AT TIME STEP      2, STRESS PERIOD     11
 UBDSV06 SAVING            EVTA  IN MODEL GEO_MODEL        PACKAGE GEO_MODEL       CONNECTED TO MODEL GEO_MODEL        PACKAGE EVTA_0           ON UNIT   1019 AT TIME STEP      2, STRESS PERIOD     11

 HEAD WILL BE SAVED ON UNIT 1020 AT END OF TIME STEP    2, STRESS PERIOD   11

end timestep


start timestep kper="11" kstp="3" mode="normal"

 UBDSV1 SAVING           STO-SS ON UNIT   1019 AT TIME STEP      3, STRESS PERIOD     11
 UBDSV1 SAVING     FLOW-JA-FACE ON UNIT   1019 AT TIME STEP      3, STRESS PERIOD     11
 UBDSV06 SAVING       DATA-SPDIS IN MODEL GEO_MODEL        PACKAGE NPF             CONNECTED TO MODEL GEO_MODEL        PACKAGE NPF              ON UNIT   1019 AT TIME STEP      3, STRESS PERIOD     11
 UBDSV06 SAVING              WEL IN MODEL GEO_MODEL        PACKAGE GEO_MODEL       CONNECTED TO MODEL GEO_MODEL        PACKAGE WEL_0            ON UNIT   1019 AT TIME STEP      3, STRESS PERIOD     11
 UBDSV06 SAVING              RIV IN MODEL GEO_MODEL        PACKAGE GEO_MODEL       CONNECTED TO MODEL GEO_MODEL        PACKAGE RIV_0            ON UNIT   1019 AT TIME STEP      3, STRESS PERIOD     11
 UBDSV06 SAVING              GHB IN MODEL GEO_MODEL        PACKAGE GEO_MODEL       CONNECTED TO MODEL GEO_MODEL        PACKAGE GHB_0            ON UNIT   1019 AT TIME STEP      3, STRESS PERIOD     11
 UBDSV06 SAVING              RCH IN MODEL GEO_MODEL        PACKAGE GEO_MODEL       CONNECTED TO MODEL GEO_MODEL        PACKAGE RCH_0            ON UNIT   1019 AT TIME STEP      3, STRESS PERIOD     11
 UBDSV06 SAVING            EVTA  IN MODEL GEO_MODEL        PACKAGE GEO_MODEL       CONNECTED TO MODEL GEO_MODEL        PACKAGE EVTA_0           ON UNIT   1019 AT TIME STEP      3, STRESS PERIOD     11

 HEAD WILL BE SAVED ON UNIT 1020 AT END OF TIME STEP    3, STRESS PERIOD   11

end timestep


start timestep kper="11" kstp="4" mode="normal"

 UBDSV1 SAVING           STO-SS ON UNIT   1019 AT TIME STEP      4, STRESS PERIOD     11
 UBDSV1 SAVING     FLOW-JA-FACE ON UNIT   1019 AT TIME STEP      4, STRESS PERIOD     11
 UBDSV06 SAVING       DATA-SPDIS IN MODEL GEO_MODEL        PACKAGE NPF             CONNECTED TO MODEL GEO_MODEL        PACKAGE NPF              ON UNIT   1019 AT TIME STEP      4, STRESS PERIOD     11
 UBDSV06 SAVING              WEL IN MODEL GEO_MODEL        PACKAGE GEO_MODEL       CONNECTED TO MODEL GEO_MODEL        PACKAGE WEL_0            ON UNIT   1019 AT TIME STEP      4, STRESS PERIOD     11
 UBDSV06 SAVING              RIV IN MODEL GEO_MODEL        PACKAGE GEO_MODEL       CONNECTED TO MODEL GEO_MODEL        PACKAGE RIV_0            ON UNIT   1019 AT TIME STEP      4, STRESS PERIOD     11
 UBDSV06 SAVING              GHB IN MODEL GEO_MODEL        PACKAGE GEO_MODEL       CONNECTED TO MODEL GEO_MODEL        PACKAGE GHB_0            ON UNIT   1019 AT TIME STEP      4, STRESS PERIOD     11
 UBDSV06 SAVING              RCH IN MODEL GEO_MODEL        PACKAGE GEO_MODEL       CONNECTED TO MODEL GEO_MODEL        PACKAGE RCH_0            ON UNIT   1019 AT TIME STEP      4, STRESS PERIOD     11
 UBDSV06 SAVING            EVTA  IN MODEL GEO_MODEL        PACKAGE GEO_MODEL       CONNECTED TO MODEL GEO_MODEL        PACKAGE EVTA_0           ON UNIT   1019 AT TIME STEP      4, STRESS PERIOD     11

 HEAD WILL BE SAVED ON UNIT 1020 AT END OF TIME STEP    4, STRESS PERIOD   11


  VOLUME BUDGET FOR ENTIRE MODEL AT END OF TIME STEP    4, STRESS PERIOD  11
  ---------------------------------------------------------------------------------------------------

     CUMULATIVE VOLUME      L**3       RATES FOR THIS TIME STEP      L**3/T          PACKAGE NAME    
     ------------------                 ------------------------                     ----------------

           IN:                                      IN:
           ---                                      ---
              STO-SS =       97138.6223                STO-SS =       1.6003E-07     STORAGE                          
                 WEL =           0.0000                   WEL =           0.0000     WEL_0                            
                 RIV =   149720234.1535                   RIV =           0.8670     RIV_0                            
                 GHB =   515386371.5491                   GHB =           2.9826     GHB_0                            
                 RCH =     5269362.0515                   RCH =       3.0494E-02     RCH_0                            
                EVTA =           0.0000                  EVTA =           0.0000     EVTA_0                           

            TOTAL IN =   670473106.3764              TOTAL IN =           3.8800

          OUT:                                     OUT:
          ----                                     ----
              STO-SS =        5924.0986                STO-SS =       8.2533E-13     STORAGE                          
                 WEL =    77760000.0000                   WEL =           0.4500     WEL_0                            
                 RIV =    74484466.6153                   RIV =           0.4308     RIV_0                            
                 GHB =   512773634.4009                   GHB =           2.9674     GHB_0                            
                 RCH =           0.0000                   RCH =           0.0000     RCH_0                            
                EVTA =     5510656.3007                  EVTA =       3.1870E-02     EVTA_0                           

           TOTAL OUT =   670534681.4155             TOTAL OUT =           3.8801

            IN - OUT =      -61575.0390              IN - OUT =      -1.3663E-04

 PERCENT DISCREPANCY =          -0.01     PERCENT DISCREPANCY =          -0.00




         TIME SUMMARY AT END OF TIME STEP    4 IN STRESS PERIOD   11
                    SECONDS     MINUTES      HOURS       DAYS        YEARS
                    -----------------------------------------------------------
   TIME STEP LENGTH 4.32000E+06  72000.      1200.0      50.000     0.13689    
 STRESS PERIOD TIME 1.72800E+07 2.88000E+05  4800.0      200.00     0.54757    
         TOTAL TIME 1.72800E+08 2.88000E+06  48000.      2000.0      5.4757    


end timestep

